22

O      1.224000    0.000000    0.000000
C      0.000000    0.000000    0.000000
N     -0.718000    0.000000    1.154000
H     -1.717000    0.061000    1.108000
C     -0.809000   -0.010000   -1.276000
C     -0.049000    0.046000    2.436000
H     -0.777000   -0.133000    3.221000
H      0.720000   -0.720000    2.476000
H      0.429000    1.010000    2.602000
H     -1.882000   -0.038000   -1.106000
H     -0.515000   -0.876000   -1.863000
H     -0.559000    0.879000   -1.850000
C      1.317200    3.324200    1.291300
C      1.674500    2.277600    2.141300
C      0.935200    2.162700    3.302500
C     -0.082600    3.093100    3.507200
Br     2.264800    3.568200   -0.320900
N      0.337300    4.194200    1.521300
N     -0.375400    4.075900    2.650300
H      2.482600    1.606800    1.891900
H      1.133400    1.385100    4.026300
H     -0.703200    3.066800    4.392000
