22

O      1.224000    0.000000    0.000000
C      0.000000    0.000000    0.000000
N     -0.718000    0.000000    1.154000
H     -1.717000    0.061000    1.108000
C     -0.809000   -0.010000   -1.276000
C     -0.049000    0.046000    2.436000
H     -0.777000   -0.133000    3.221000
H      0.720000   -0.720000    2.476000
H      0.429000    1.010000    2.602000
H     -1.882000   -0.038000   -1.106000
H     -0.515000   -0.876000   -1.863000
H     -0.559000    0.879000   -1.850000
C      0.101000   -2.979200    0.766600
C      0.946000   -3.701000    1.609600
C      1.924600   -4.451100    0.986700
C      1.969900   -4.412800   -0.406100
Br    -1.268800   -1.922600    1.517400
N      0.175500   -2.967700   -0.561700
N      1.127700   -3.698200   -1.158500
H      0.828900   -3.664600    2.682000
H      2.628800   -5.045300    1.551200
H      2.707300   -4.973500   -0.963500
