22

O      1.224000    0.000000    0.000000
C      0.000000    0.000000    0.000000
N     -0.718000    0.000000    1.154000
H     -1.717000    0.061000    1.108000
C     -0.809000   -0.010000   -1.276000
C     -0.049000    0.046000    2.436000
H     -0.777000   -0.133000    3.221000
H      0.720000   -0.720000    2.476000
H      0.429000    1.010000    2.602000
H     -1.882000   -0.038000   -1.106000
H     -0.515000   -0.876000   -1.863000
H     -0.559000    0.879000   -1.850000
C      3.858500   -1.301200    2.975700
C      4.860500   -1.192700    3.939900
C      4.740000   -0.135000    4.820500
C      3.642000    0.708700    4.659800
Br     3.930100   -2.711100    1.725200
N      2.823400   -0.474300    2.853500
N      2.713700    0.549400    3.711700
H      5.674100   -1.900800    3.981900
H      5.464600    0.035900    5.603800
H      3.480800    1.557000    5.310400
