22

O      1.224000    0.000000    0.000000
C      0.000000    0.000000    0.000000
N     -0.718000    0.000000    1.154000
H     -1.717000    0.061000    1.108000
C     -0.809000   -0.010000   -1.276000
C     -0.049000    0.046000    2.436000
H     -0.777000   -0.133000    3.221000
H      0.720000   -0.720000    2.476000
H      0.429000    1.010000    2.602000
H     -1.882000   -0.038000   -1.106000
H     -0.515000   -0.876000   -1.863000
H     -0.559000    0.879000   -1.850000
C      3.382700   -2.752300    1.897700
C      3.526700   -4.072200    2.325200
C      4.733000   -4.675900    2.027200
C      5.675400   -3.915100    1.337000
Br     1.772900   -1.837100    2.254800
N      4.307100   -2.057500    1.239900
N      5.474900   -2.650400    0.954500
H      2.733700   -4.577000    2.855700
H      4.942800   -5.696200    2.315000
H      6.641700   -4.319200    1.068800
