22

O      1.224000    0.000000    0.000000
C      0.000000    0.000000    0.000000
N     -0.718000    0.000000    1.154000
H     -1.717000    0.061000    1.108000
C     -0.809000   -0.010000   -1.276000
C     -0.049000    0.046000    2.436000
H     -0.777000   -0.133000    3.221000
H      0.720000   -0.720000    2.476000
H      0.429000    1.010000    2.602000
H     -1.882000   -0.038000   -1.106000
H     -0.515000   -0.876000   -1.863000
H     -0.559000    0.879000   -1.850000
C      2.637500    2.646500   -1.231100
C      3.543100    3.269200   -0.372200
C      3.080700    3.539200    0.901300
C      1.770600    3.166800    1.198000
Br     3.170200    2.234400   -2.992600
N      1.392000    2.305500   -0.910800
N      0.951000    2.570900    0.326800
H      4.541300    3.518500   -0.698600
H      3.705100    4.019300    1.641200
H      1.339000    3.345400    2.173100
