22

O      1.224000    0.000000    0.000000
C      0.000000    0.000000    0.000000
N     -0.718000    0.000000    1.154000
H     -1.717000    0.061000    1.108000
C     -0.809000   -0.010000   -1.276000
C     -0.049000    0.046000    2.436000
H     -0.777000   -0.133000    3.221000
H      0.720000   -0.720000    2.476000
H      0.429000    1.010000    2.602000
H     -1.882000   -0.038000   -1.106000
H     -0.515000   -0.876000   -1.863000
H     -0.559000    0.879000   -1.850000
C      2.984000    0.968400   -2.658600
C      3.441500    0.110700   -1.658400
C      4.741200    0.313200   -1.236300
C      5.458000    1.342400   -1.844700
Br     1.223000    0.775600   -3.305300
N      3.699600    1.941600   -3.216300
N      4.959800    2.131600   -2.801300
H      2.805500   -0.659700   -1.249400
H      5.189000   -0.298500   -0.466100
H      6.479900    1.560700   -1.567200
