22

H      0.760300   -0.685200    2.452100
H      0.401600    1.029800    2.616000
C     -0.038900    0.050500    2.435000
H     -0.754300   -0.173300    3.220300
N     -0.713000    0.000000    1.154400
H     -1.712600    0.063700    1.111800
O      1.225500   -0.000000   -0.000000
C      0.000000   -0.000000   -0.000000
C     -0.806800   -0.008800   -1.275400
H     -1.879900   -0.053500   -1.105800
H     -0.500400   -0.864800   -1.870900
H     -0.569100    0.889100   -1.840600
C      1.192800    0.001500    5.319300
C      1.188900   -1.214700    6.002300
C      1.165500   -1.133600    7.381100
C      1.148200    0.140500    7.946400
Br     1.224100    0.000900    3.433700
N      1.175800    1.200800    5.895200
N      1.153100    1.270900    7.233500
H      1.203500   -2.153800    5.470300
H      1.160600   -2.018700    8.001100
H      1.129500    0.283600    9.017900
