22

O      1.225500   -0.000000   -0.000000
C      0.000000   -0.000000   -0.000000
N     -0.713000    0.000000    1.154400
H     -1.712600    0.063700    1.111800
C     -0.806800   -0.008800   -1.275400
C     -0.038900    0.050500    2.435000
H     -0.754300   -0.173300    3.220300
H      0.760300   -0.685200    2.452100
H      0.401600    1.029800    2.616000
H     -1.879900   -0.053500   -1.105800
H     -0.500400   -0.864800   -1.870900
H     -0.569100    0.889100   -1.840600
C     -2.557700    3.682200   -0.652000
C     -3.043600    4.366400    0.462100
C     -4.034800    5.296500    0.215400
C     -4.446200    5.457000   -1.106800
Br    -1.202700    2.390600   -0.423200
N     -2.976400    3.863200   -1.901800
N     -3.938400    4.767500   -2.132800
H     -2.657600    4.169100    1.450600
H     -4.476800    5.878700    1.011400
H     -5.216700    6.165500   -1.377200
