22

O      1.225500   -0.000000   -0.000000
C      0.000000   -0.000000   -0.000000
N     -0.713000    0.000000    1.154400
H     -1.712600    0.063700    1.111800
C     -0.806800   -0.008800   -1.275400
C     -0.038900    0.050500    2.435000
H     -0.754300   -0.173300    3.220300
H      0.760300   -0.685200    2.452100
H      0.401600    1.029800    2.616000
H     -1.879900   -0.053500   -1.105800
H     -0.500400   -0.864800   -1.870900
H     -0.569100    0.889100   -1.840600
C      0.606600    4.302200    5.124200
C      0.542900    3.807600    6.426800
C      0.399400    4.751300    7.425400
C      0.333400    6.088400    7.036700
Br     0.802200    3.096100    3.687700
N      0.540000    5.588700    4.791700
N      0.400800    6.498200    5.766500
H      0.603500    2.748400    6.625500
H      0.340200    4.470000    8.467100
H      0.221400    6.883100    7.761200
