22

O      1.225500   -0.000000   -0.000000
C      0.000000   -0.000000   -0.000000
N     -0.713000    0.000000    1.154400
H     -1.712600    0.063700    1.111800
C     -0.806800   -0.008800   -1.275400
C     -0.038900    0.050500    2.435000
H     -0.754300   -0.173300    3.220300
H      0.760300   -0.685200    2.452100
H      0.401600    1.029800    2.616000
H     -1.879900   -0.053500   -1.105800
H     -0.500400   -0.864800   -1.870900
H     -0.569100    0.889100   -1.840600
C      6.559800   -0.574300   -3.065000
C      7.653200    0.231400   -3.382300
C      8.708900   -0.401700   -4.009400
C      8.578100   -1.766800   -4.259700
Br     5.066100    0.193200   -2.206900
N      6.471400   -1.877000   -3.320500
N      7.500000   -2.483900   -3.929200
H      7.658300    1.284500   -3.145400
H      9.602100    0.134700   -4.296300
H      9.362100   -2.330100   -4.746500
