22

O      1.225500   -0.000000   -0.000000
C      0.000000   -0.000000   -0.000000
N     -0.713000    0.000000    1.154400
H     -1.712600    0.063700    1.111800
C     -0.806800   -0.008800   -1.275400
C     -0.038900    0.050500    2.435000
H     -0.754300   -0.173300    3.220300
H      0.760300   -0.685200    2.452100
H      0.401600    1.029800    2.616000
H     -1.879900   -0.053500   -1.105800
H     -0.500400   -0.864800   -1.870900
H     -0.569100    0.889100   -1.840600
C     -4.620100   -2.581400   -0.725900
C     -4.647700   -2.531300   -2.119500
C     -5.388500   -3.515200   -2.745200
C     -6.027400   -4.449400   -1.931300
Br    -3.636800   -1.283000    0.224900
N     -5.244200   -3.490800    0.018200
N     -5.961000   -4.442100   -0.596600
H     -4.116700   -1.763400   -2.661300
H     -5.472700   -3.563400   -3.821500
H     -6.624700   -5.248200   -2.348400
