22

O      1.225500   -0.000000   -0.000000
C      0.000000   -0.000000   -0.000000
N     -0.713000    0.000000    1.154400
H     -1.712600    0.063700    1.111800
C     -0.806800   -0.008800   -1.275400
C     -0.038900    0.050500    2.435000
H     -0.754300   -0.173300    3.220300
H      0.760300   -0.685200    2.452100
H      0.401600    1.029800    2.616000
H     -1.879900   -0.053500   -1.105800
H     -0.500400   -0.864800   -1.870900
H     -0.569100    0.889100   -1.840600
C     -2.621200    5.095300    0.632000
C     -3.941400    5.412900    0.950400
C     -4.411800    6.612400    0.451800
C     -3.530500    7.377100   -0.311100
Br    -1.882600    3.479300    1.264200
N     -1.808900    5.852600   -0.100700
N     -2.272800    7.014900   -0.580800
H     -4.545800    4.750500    1.551200
H     -5.420800    6.948900    0.642300
H     -3.826700    8.326800   -0.734500
