22

O      1.225500   -0.000000   -0.000000
C      0.000000   -0.000000   -0.000000
N     -0.713000    0.000000    1.154400
H     -1.712600    0.063700    1.111800
C     -0.806800   -0.008800   -1.275400
C     -0.038900    0.050500    2.435000
H     -0.754300   -0.173300    3.220300
H      0.760300   -0.685200    2.452100
H      0.401600    1.029800    2.616000
H     -1.879900   -0.053500   -1.105800
H     -0.500400   -0.864800   -1.870900
H     -0.569100    0.889100   -1.840600
C     -3.726000    3.711300   -0.014200
C     -3.460400    5.021300    0.384400
C     -3.925100    6.014700   -0.455600
C     -4.605300    5.614000   -1.604600
Br    -3.134000    2.281000    1.063000
N     -4.380000    3.367400   -1.120600
N     -4.827700    4.337200   -1.930400
H     -2.922900    5.229200    1.297100
H     -3.770400    7.061400   -0.235800
H     -4.998000    6.333900   -2.309200
