22

O      1.225500   -0.000000   -0.000000
C      0.000000   -0.000000   -0.000000
N     -0.713000    0.000000    1.154400
H     -1.712600    0.063700    1.111800
C     -0.806800   -0.008800   -1.275400
C     -0.038900    0.050500    2.435000
H     -0.754300   -0.173300    3.220300
H      0.760300   -0.685200    2.452100
H      0.401600    1.029800    2.616000
H     -1.879900   -0.053500   -1.105800
H     -0.500400   -0.864800   -1.870900
H     -0.569100    0.889100   -1.840600
C     -4.137900   -0.429000    0.890000
C     -4.585100   -1.750200    0.881400
C     -5.955000   -1.924500    0.847600
C     -6.745200   -0.776200    0.825700
Br    -2.284700   -0.082300    0.935500
N     -4.924600    0.643700    0.868300
N     -6.252800    0.466100    0.835500
H     -3.889400   -2.575300    0.900300
H     -6.401300   -2.908600    0.838300
H     -7.824600   -0.833000    0.798900
