22

O      1.225500   -0.000000   -0.000000
C      0.000000   -0.000000   -0.000000
N     -0.713000    0.000000    1.154400
H     -1.712600    0.063700    1.111800
C     -0.806800   -0.008800   -1.275400
C     -0.038900    0.050500    2.435000
H     -0.754300   -0.173300    3.220300
H      0.760300   -0.685200    2.452100
H      0.401600    1.029800    2.616000
H     -1.879900   -0.053500   -1.105800
H     -0.500400   -0.864800   -1.870900
H     -0.569100    0.889100   -1.840600
C     -4.053000   -3.029900    0.209100
C     -5.241700   -2.504900    0.715800
C     -6.406700   -3.022900    0.183900
C     -6.280000   -4.007300   -0.795000
Br    -2.406300   -2.390100    0.869000
N     -3.972000   -3.971300   -0.727500
N     -5.106900   -4.468800   -1.238600
H     -5.234400   -1.740200    1.477600
H     -7.379200   -2.682500    0.509600
H     -7.146300   -4.459700   -1.257400
