22

O      1.225500   -0.000000   -0.000000
C      0.000000   -0.000000   -0.000000
N     -0.713000    0.000000    1.154400
H     -1.712600    0.063700    1.111800
C     -0.806800   -0.008800   -1.275400
C     -0.038900    0.050500    2.435000
H     -0.754300   -0.173300    3.220300
H      0.760300   -0.685200    2.452100
H      0.401600    1.029800    2.616000
H     -1.879900   -0.053500   -1.105800
H     -0.500400   -0.864800   -1.870900
H     -0.569100    0.889100   -1.840600
C      1.397100    6.526400    0.003200
C      1.786200    7.089800   -1.212000
C      2.550300    8.237700   -1.129000
C      2.853000    8.713400    0.146000
Br     0.351300    4.957000   -0.000100
N      1.706300    7.010500    1.203200
N      2.448000    8.124700    1.275300
H      1.499200    6.643300   -2.151800
H      2.901600    8.750100   -2.013100
H      3.446000    9.605700    0.290500
