22

O      1.224000    0.000000    0.000000
C      0.000000    0.000000    0.000000
N     -0.718000    0.000000    1.154000
H     -1.717000    0.061000    1.108000
C     -0.809000   -0.010000   -1.276000
C     -0.049000    0.046000    2.436000
H     -0.777000   -0.133000    3.221000
H      0.720000   -0.720000    2.476000
H      0.429000    1.010000    2.602000
H     -1.882000   -0.038000   -1.106000
H     -0.515000   -0.876000   -1.863000
H     -0.559000    0.879000   -1.850000
C      3.857200    1.033900    2.216000
C      3.250000    2.286800    2.132700
C      3.642800    3.213100    3.079300
C      4.595800    2.808400    4.012800
Br     3.390400   -0.302500    0.969900
N      4.765100    0.684000    3.123500
N      5.140900    1.588500    4.038500
H      2.519000    2.503400    1.368500
H      3.231300    4.212100    3.100000
H      4.952200    3.477600    4.783500
