22

O      1.224000    0.000000    0.000000
C      0.000000    0.000000    0.000000
N     -0.718000    0.000000    1.154000
H     -1.717000    0.061000    1.108000
C     -0.809000   -0.010000   -1.276000
C     -0.049000    0.046000    2.436000
H     -0.777000   -0.133000    3.221000
H      0.720000   -0.720000    2.476000
H      0.429000    1.010000    2.602000
H     -1.882000   -0.038000   -1.106000
H     -0.515000   -0.876000   -1.863000
H     -0.559000    0.879000   -1.850000
C      4.091800    2.392900    0.101300
C      5.368600    2.939800    0.227500
C      5.454100    4.115900    0.947200
C      4.269700    4.633100    1.469700
Br     3.866600    0.787700   -0.862700
N      2.982200    2.916900    0.615500
N      3.073600    4.058200    1.312500
H      6.227800    2.460500   -0.216600
H      6.398100    4.618700    1.101900
H      4.257400    5.549300    2.043700
