22

O      1.224000    0.000000    0.000000
C      0.000000    0.000000    0.000000
N     -0.718000    0.000000    1.154000
H     -1.717000    0.061000    1.108000
C     -0.809000   -0.010000   -1.276000
C     -0.049000    0.046000    2.436000
H     -0.777000   -0.133000    3.221000
H      0.720000   -0.720000    2.476000
H      0.429000    1.010000    2.602000
H     -1.882000   -0.038000   -1.106000
H     -0.515000   -0.876000   -1.863000
H     -0.559000    0.879000   -1.850000
C      3.561300    1.062000   -3.322700
C      4.163700    2.318000   -3.252700
C      5.404100    2.360600   -2.646000
C      5.924400    1.158200   -2.169600
Br     1.866100    0.895400   -4.132100
N      4.090300   -0.065900   -2.855500
N      5.294200   -0.016100   -2.268200
H      3.676700    3.194000   -3.653300
H      5.953100    3.285600   -2.542300
H      6.889000    1.112600   -1.683500
