22

O      1.224000    0.000000    0.000000
C      0.000000    0.000000    0.000000
N     -0.718000    0.000000    1.154000
H     -1.717000    0.061000    1.108000
C     -0.809000   -0.010000   -1.276000
C     -0.049000    0.046000    2.436000
H     -0.777000   -0.133000    3.221000
H      0.720000   -0.720000    2.476000
H      0.429000    1.010000    2.602000
H     -1.882000   -0.038000   -1.106000
H     -0.515000   -0.876000   -1.863000
H     -0.559000    0.879000   -1.850000
C      5.598200   -1.554300   -0.536700
C      6.648000   -2.056400   -1.305700
C      7.629500   -2.740900   -0.615400
C      7.475100   -2.860400    0.764900
Br     4.206500   -0.603900   -1.383200
N      5.485200   -1.688900    0.782100
N      6.441700   -2.354400    1.444600
H      6.676600   -1.910100   -2.374800
H      8.484200   -3.168200   -1.119900
H      8.201900   -3.382000    1.372100
