22

O      1.224000    0.000000    0.000000
C      0.000000    0.000000    0.000000
N     -0.718000    0.000000    1.154000
H     -1.717000    0.061000    1.108000
C     -0.809000   -0.010000   -1.276000
C     -0.049000    0.046000    2.436000
H     -0.777000   -0.133000    3.221000
H      0.720000   -0.720000    2.476000
H      0.429000    1.010000    2.602000
H     -1.882000   -0.038000   -1.106000
H     -0.515000   -0.876000   -1.863000
H     -0.559000    0.879000   -1.850000
C      5.596200    0.986900    2.071700
C      4.402500    1.694600    1.931200
C      4.509500    3.071700    1.957800
C      5.784700    3.610800    2.120600
Br     5.559300   -0.898500    2.048800
N      6.797300    1.538100    2.225500
N      6.892600    2.874900    2.250300
H      3.460400    1.182000    1.809800
H      3.643200    3.709700    1.857000
H      5.947300    4.679200    2.151100
