22

O      1.224000    0.000000    0.000000
C      0.000000    0.000000    0.000000
N     -0.718000    0.000000    1.154000
H     -1.717000    0.061000    1.108000
C     -0.809000   -0.010000   -1.276000
C     -0.049000    0.046000    2.436000
H     -0.777000   -0.133000    3.221000
H      0.720000   -0.720000    2.476000
H      0.429000    1.010000    2.602000
H     -1.882000   -0.038000   -1.106000
H     -0.515000   -0.876000   -1.863000
H     -0.559000    0.879000   -1.850000
C      5.596000    1.755000    2.446600
C      5.369600    2.594000    3.537600
C      6.266500    2.482600    4.582300
C      7.296700    1.553600    4.444000
Br     4.428200    1.829000    0.967600
N      6.592700    0.879000    2.350800
N      7.458800    0.776900    3.368700
H      4.538900    3.283200    3.549100
H      6.177900    3.088400    5.472800
H      8.036500    1.410000    5.219300
