22

O      1.224000    0.000000    0.000000
C      0.000000    0.000000    0.000000
N     -0.718000    0.000000    1.154000
H     -1.717000    0.061000    1.108000
C     -0.809000   -0.010000   -1.276000
C     -0.049000    0.046000    2.436000
H     -0.777000   -0.133000    3.221000
H      0.720000   -0.720000    2.476000
H      0.429000    1.010000    2.602000
H     -1.882000   -0.038000   -1.106000
H     -0.515000   -0.876000   -1.863000
H     -0.559000    0.879000   -1.850000
C      2.218100    2.394300   -3.479600
C      3.396200    2.219400   -2.753600
C      3.882900    3.341600   -2.111600
C      3.156900    4.523400   -2.251400
Br     1.470300    0.923800   -4.393400
N      1.552200    3.540800   -3.590000
N      2.031000    4.625100   -2.964000
H      3.885500    1.258400   -2.706500
H      4.789000    3.310200   -1.523600
H      3.475400    5.442000   -1.778500
