22

O      1.224000    0.000000    0.000000
C      0.000000    0.000000    0.000000
N     -0.718000    0.000000    1.154000
H     -1.717000    0.061000    1.108000
C     -0.809000   -0.010000   -1.276000
C     -0.049000    0.046000    2.436000
H     -0.777000   -0.133000    3.221000
H      0.720000   -0.720000    2.476000
H      0.429000    1.010000    2.602000
H     -1.882000   -0.038000   -1.106000
H     -0.515000   -0.876000   -1.863000
H     -0.559000    0.879000   -1.850000
C      0.754800   -4.136200   -3.690300
C      1.264900   -4.663100   -2.503900
C      1.402900   -6.037000   -2.462600
C      1.023100   -6.752000   -3.597500
Br     0.527300   -2.270800   -3.849000
N      0.402600   -4.852400   -4.754700
N      0.539500   -6.185000   -4.706800
H      1.530900   -4.022000   -1.677100
H      1.789000   -6.542100   -1.588800
H      1.102200   -7.829400   -3.639700
