22

O      1.224000    0.000000    0.000000
C      0.000000    0.000000    0.000000
N     -0.718000    0.000000    1.154000
H     -1.717000    0.061000    1.108000
C     -0.809000   -0.010000   -1.276000
C     -0.049000    0.046000    2.436000
H     -0.777000   -0.133000    3.221000
H      0.720000   -0.720000    2.476000
H      0.429000    1.010000    2.602000
H     -1.882000   -0.038000   -1.106000
H     -0.515000   -0.876000   -1.863000
H     -0.559000    0.879000   -1.850000
C      3.586400   -2.464000   -1.322600
C      3.860300   -1.239900   -0.712600
C      3.461100   -0.115100   -1.408200
C      2.831500   -0.312800   -2.636200
Br     4.091000   -4.060700   -0.455200
N      2.982200   -2.613000   -2.498600
N      2.597800   -1.516600   -3.167200
H      4.355100   -1.191800    0.245500
H      3.627500    0.879900   -1.020800
H      2.491200    0.518800   -3.237500
