22

O      1.224000    0.000000    0.000000
C      0.000000    0.000000    0.000000
N     -0.718000    0.000000    1.154000
H     -1.717000    0.061000    1.108000
C     -0.809000   -0.010000   -1.276000
C     -0.049000    0.046000    2.436000
H     -0.777000   -0.133000    3.221000
H      0.720000   -0.720000    2.476000
H      0.429000    1.010000    2.602000
H     -1.882000   -0.038000   -1.106000
H     -0.515000   -0.876000   -1.863000
H     -0.559000    0.879000   -1.850000
C      3.133800   -3.133600    0.585100
C      3.787600   -2.654100    1.720000
C      4.994100   -3.255400    2.021900
C      5.433200   -4.269800    1.172400
Br     1.478900   -2.379500    0.085800
N      3.585400   -4.105800   -0.202900
N      4.756900   -4.684200    0.096800
H      3.362900   -1.860400    2.315700
H      5.577900   -2.955700    2.880500
H      6.367100   -4.786600    1.344200
