22

O      1.224000    0.000000    0.000000
C      0.000000    0.000000    0.000000
N     -0.718000    0.000000    1.154000
H     -1.717000    0.061000    1.108000
C     -0.809000   -0.010000   -1.276000
C     -0.049000    0.046000    2.436000
H     -0.777000   -0.133000    3.221000
H      0.720000   -0.720000    2.476000
H      0.429000    1.010000    2.602000
H     -1.882000   -0.038000   -1.106000
H     -0.515000   -0.876000   -1.863000
H     -0.559000    0.879000   -1.850000
C      2.982300    2.646700    1.363100
C      4.054700    3.537300    1.411100
C      3.854400    4.685300    2.153100
C      2.615000    4.837700    2.772900
Br     3.153500    1.048600    0.376500
N      1.811900    2.827300    1.969400
N      1.625400    3.943700    2.687400
H      4.978600    3.327200    0.894000
H      4.623700    5.437700    2.252400
H      2.384700    5.709200    3.369800
