22

O      1.224000    0.000000    0.000000
C      0.000000    0.000000    0.000000
N     -0.718000    0.000000    1.154000
H     -1.717000    0.061000    1.108000
C     -0.809000   -0.010000   -1.276000
C     -0.049000    0.046000    2.436000
H     -0.777000   -0.133000    3.221000
H      0.720000   -0.720000    2.476000
H      0.429000    1.010000    2.602000
H     -1.882000   -0.038000   -1.106000
H     -0.515000   -0.876000   -1.863000
H     -0.559000    0.879000   -1.850000
C      4.254700    3.746800   -0.249000
C      5.643400    3.640100   -0.175200
C      6.360200    4.679500   -0.735800
C      5.633000    5.719400   -1.312900
Br     3.183700    2.380000    0.486800
N      3.595100    4.757300   -0.809300
N      4.297900    5.761900   -1.351100
H      6.113900    2.790100    0.295200
H      7.440800    4.691000   -0.730000
H      6.124200    6.566700   -1.771000
