22

O      1.224000    0.000000    0.000000
C      0.000000    0.000000    0.000000
N     -0.718000    0.000000    1.154000
H     -1.717000    0.061000    1.108000
C     -0.809000   -0.010000   -1.276000
C     -0.049000    0.046000    2.436000
H     -0.777000   -0.133000    3.221000
H      0.720000   -0.720000    2.476000
H      0.429000    1.010000    2.602000
H     -1.882000   -0.038000   -1.106000
H     -0.515000   -0.876000   -1.863000
H     -0.559000    0.879000   -1.850000
C      5.152000    2.556100   -0.926100
C      6.465900    2.207900   -0.613600
C      7.390900    2.367200   -1.627200
C      6.924800    2.854500   -2.847300
Br     3.811900    2.375700    0.388500
N      4.744300    3.018900   -2.105000
N      5.648000    3.170700   -3.083300
H      6.727600    1.837700    0.366000
H      8.434600    2.125600   -1.485500
H      7.589100    3.005500   -3.686900
