22

O      1.224000    0.000000    0.000000
C      0.000000    0.000000    0.000000
N     -0.718000    0.000000    1.154000
H     -1.717000    0.061000    1.108000
C     -0.809000   -0.010000   -1.276000
C     -0.049000    0.046000    2.436000
H     -0.777000   -0.133000    3.221000
H      0.720000   -0.720000    2.476000
H      0.429000    1.010000    2.602000
H     -1.882000   -0.038000   -1.106000
H     -0.515000   -0.876000   -1.863000
H     -0.559000    0.879000   -1.850000
C      4.112700   -4.901200    0.830500
C      5.173400   -5.762900    1.109600
C      4.933200   -6.726000    2.070400
C      3.669500   -6.740800    2.658800
Br     4.337700   -3.550500   -0.466200
N      2.918100   -4.946500    1.414400
N      2.692900   -5.883900    2.345700
H      6.118600   -5.669400    0.596700
H      5.690500   -7.441200    2.358100
H      3.407600   -7.464600    3.418000
