22

O      1.224000    0.000000    0.000000
C      0.000000    0.000000    0.000000
N     -0.718000    0.000000    1.154000
H     -1.717000    0.061000    1.108000
C     -0.809000   -0.010000   -1.276000
C     -0.049000    0.046000    2.436000
H     -0.777000   -0.133000    3.221000
H      0.720000   -0.720000    2.476000
H      0.429000    1.010000    2.602000
H     -1.882000   -0.038000   -1.106000
H     -0.515000   -0.876000   -1.863000
H     -0.559000    0.879000   -1.850000
C      1.880900   -4.321900    3.328200
C      0.793300   -4.706300    2.544200
C      0.685800   -6.058200    2.280800
C      1.663400   -6.894000    2.818500
Br     2.118800   -2.498200    3.745700
N      2.795600   -5.150800    3.824600
N      2.684100   -6.461100    3.564500
H      0.087300   -3.978800    2.173400
H     -0.121300   -6.456900    1.683000
H      1.645700   -7.962600    2.655500
