22

O      1.224000    0.000000    0.000000
C      0.000000    0.000000    0.000000
N     -0.718000    0.000000    1.154000
H     -1.717000    0.061000    1.108000
C     -0.809000   -0.010000   -1.276000
C     -0.049000    0.046000    2.436000
H     -0.777000   -0.133000    3.221000
H      0.720000   -0.720000    2.476000
H      0.429000    1.010000    2.602000
H     -1.882000   -0.038000   -1.106000
H     -0.515000   -0.876000   -1.863000
H     -0.559000    0.879000   -1.850000
C      4.478900   -3.972200    0.658100
C      3.174000   -4.398200    0.410800
C      3.044900   -5.645000   -0.170000
C      4.217800   -6.345300   -0.447900
Br     4.764300   -2.284000    1.448800
N      5.576200   -4.670500    0.378200
N      5.442500   -5.879400   -0.185200
H      2.327000   -3.778800    0.663900
H      2.076600   -6.065100   -0.401600
H      4.196600   -7.326300   -0.901700
