22

O      1.224000    0.000000    0.000000
C      0.000000    0.000000    0.000000
N     -0.718000    0.000000    1.154000
H     -1.717000    0.061000    1.108000
C     -0.809000   -0.010000   -1.276000
C     -0.049000    0.046000    2.436000
H     -0.777000   -0.133000    3.221000
H      0.720000   -0.720000    2.476000
H      0.429000    1.010000    2.602000
H     -1.882000   -0.038000   -1.106000
H     -0.515000   -0.876000   -1.863000
H     -0.559000    0.879000   -1.850000
C     -0.685800    3.725900   -4.218900
C     -0.263200    4.882600   -4.873900
C     -0.083100    4.772800   -6.239100
C     -0.338400    3.531500   -6.819800
Br    -0.961400    3.769900   -2.353800
N     -0.919700    2.556600   -4.808800
N     -0.742600    2.458200   -6.133800
H     -0.091900    5.800300   -4.331800
H      0.242400    5.611800   -6.837400
H     -0.219700    3.368900   -7.882000
