22

O      1.224000    0.000000    0.000000
C      0.000000    0.000000    0.000000
N     -0.718000    0.000000    1.154000
H     -1.717000    0.061000    1.108000
C     -0.809000   -0.010000   -1.276000
C     -0.049000    0.046000    2.436000
H     -0.777000   -0.133000    3.221000
H      0.720000   -0.720000    2.476000
H      0.429000    1.010000    2.602000
H     -1.882000   -0.038000   -1.106000
H     -0.515000   -0.876000   -1.863000
H     -0.559000    0.879000   -1.850000
C      1.337600   -3.441500    2.438500
C      1.408300   -3.724600    3.802400
C      1.902700   -2.714500    4.604700
C      2.277400   -1.526500    3.978700
Br     0.676800   -4.754200    1.256600
N      1.705700   -2.293000    1.876800
N      2.184400   -1.317800    2.662000
H      1.091700   -4.680400    4.191500
H      1.997200   -2.834900    5.674400
H      2.672700   -0.691700    4.540500
