22

O      1.224000    0.000000    0.000000
C      0.000000    0.000000    0.000000
N     -0.718000    0.000000    1.154000
H     -1.717000    0.061000    1.108000
C     -0.809000   -0.010000   -1.276000
C     -0.049000    0.046000    2.436000
H     -0.777000   -0.133000    3.221000
H      0.720000   -0.720000    2.476000
H      0.429000    1.010000    2.602000
H     -1.882000   -0.038000   -1.106000
H     -0.515000   -0.876000   -1.863000
H     -0.559000    0.879000   -1.850000
C      4.765100   -1.082800   -2.562500
C      4.280900    0.222500   -2.647500
C      4.669900    0.940200   -3.762000
C      5.498000    0.296200   -4.680000
Br     4.292500   -2.147600   -1.079400
N      5.555500   -1.664200   -3.461000
N      5.928500   -0.961100   -4.539500
H      3.641600    0.632000   -1.880200
H      4.348200    1.959600   -3.920600
H      5.843400    0.793400   -5.575800
