22

O      1.225500   -0.000000   -0.000000
C      0.000000   -0.000000   -0.000000
N     -0.713000    0.000000    1.154400
H     -1.712600    0.063700    1.111800
C     -0.806800   -0.008800   -1.275400
C     -0.038900    0.050500    2.435000
H     -0.754300   -0.173300    3.220300
H      0.760300   -0.685200    2.452100
H      0.401600    1.029800    2.616000
H     -1.879900   -0.053500   -1.105800
H     -0.500400   -0.864800   -1.870900
H     -0.569100    0.889100   -1.840600
C      3.968500   -4.763300    0.060200
C      3.245700   -5.953000   -0.025700
C      3.992800   -7.104300   -0.182900
C      5.378700   -6.964300   -0.239500
Br     3.042700   -3.134500    0.275900
N      5.294400   -4.669300    0.001900
N      6.012200   -5.791000   -0.150800
H      2.167700   -5.956600    0.029200
H      3.527100   -8.076500   -0.259500
H      6.028900   -7.819500   -0.361200
