22

O      1.225500   -0.000000   -0.000000
C      0.000000   -0.000000   -0.000000
N     -0.713000    0.000000    1.154400
H     -1.712600    0.063700    1.111800
C     -0.806800   -0.008800   -1.275400
C     -0.038900    0.050500    2.435000
H     -0.754300   -0.173300    3.220300
H      0.760300   -0.685200    2.452100
H      0.401600    1.029800    2.616000
H     -1.879900   -0.053500   -1.105800
H     -0.500400   -0.864800   -1.870900
H     -0.569100    0.889100   -1.840600
C      3.478700    3.144300    3.649100
C      3.548100    4.447500    3.156700
C      3.672100    5.445700    4.103600
C      3.715100    5.056100    5.441400
Br     3.308400    1.708300    2.438600
N      3.523100    2.811000    4.936400
N      3.643600    3.785400    5.848900
H      3.506000    4.646900    2.096700
H      3.733700    6.487800    3.824200
H      3.811000    5.780200    6.238500
