22

O      1.225500   -0.000000   -0.000000
C      0.000000   -0.000000   -0.000000
N     -0.713000    0.000000    1.154400
H     -1.712600    0.063700    1.111800
C     -0.806800   -0.008800   -1.275400
C     -0.038900    0.050500    2.435000
H     -0.754300   -0.173300    3.220300
H      0.760300   -0.685200    2.452100
H      0.401600    1.029800    2.616000
H     -1.879900   -0.053500   -1.105800
H     -0.500400   -0.864800   -1.870900
H     -0.569100    0.889100   -1.840600
C     -0.006600    1.152600   -6.006400
C     -0.293600    2.516200   -6.066400
C     -0.624900    3.010000   -7.313300
C     -0.639400    2.107000   -8.375300
Br     0.457300    0.379200   -4.350100
N     -0.031000    0.320600   -7.044300
N     -0.353500    0.807500   -8.250900
H     -0.254500    3.134500   -5.182400
H     -0.864000    4.052800   -7.465000
H     -0.889100    2.419300   -9.379800
