22

O      1.225500   -0.000000   -0.000000
C      0.000000   -0.000000   -0.000000
N     -0.713000    0.000000    1.154400
H     -1.712600    0.063700    1.111800
C     -0.806800   -0.008800   -1.275400
C     -0.038900    0.050500    2.435000
H     -0.754300   -0.173300    3.220300
H      0.760300   -0.685200    2.452100
H      0.401600    1.029800    2.616000
H     -1.879900   -0.053500   -1.105800
H     -0.500400   -0.864800   -1.870900
H     -0.569100    0.889100   -1.840600
C      5.116600   -2.954000    4.360900
C      5.407000   -2.743100    5.708800
C      5.980800   -3.807200    6.377200
C      6.209800   -4.972400    5.646900
Br     4.331400   -1.563500    3.357600
N      5.350400   -4.082900    3.696900
N      5.907400   -5.110800    4.352600
H      5.190200   -1.799300    6.185700
H      6.243300   -3.744400    7.423600
H      6.655300   -5.846300    6.101600
