22

O      1.225500   -0.000000   -0.000000
C      0.000000   -0.000000   -0.000000
N     -0.713000    0.000000    1.154400
H     -1.712600    0.063700    1.111800
C     -0.806800   -0.008800   -1.275400
C     -0.038900    0.050500    2.435000
H     -0.754300   -0.173300    3.220300
H      0.760300   -0.685200    2.452100
H      0.401600    1.029800    2.616000
H     -1.879900   -0.053500   -1.105800
H     -0.500400   -0.864800   -1.870900
H     -0.569100    0.889100   -1.840600
C      4.070700   -4.180500   -3.331400
C      4.191300   -4.543000   -4.672900
C      3.984500   -5.878500   -4.959200
C      3.679400   -6.721400   -3.891500
Br     4.334000   -2.380400   -2.834600
N      3.777500   -5.015600   -2.338100
N      3.578300   -6.309900   -2.624100
H      4.432200   -3.811700   -5.429400
H      4.055100   -6.259700   -5.967900
H      3.504500   -7.778300   -4.037600
