22

O      1.225500   -0.000000   -0.000000
C      0.000000   -0.000000   -0.000000
N     -0.713000    0.000000    1.154400
H     -1.712600    0.063700    1.111800
C     -0.806800   -0.008800   -1.275400
C     -0.038900    0.050500    2.435000
H     -0.754300   -0.173300    3.220300
H      0.760300   -0.685200    2.452100
H      0.401600    1.029800    2.616000
H     -1.879900   -0.053500   -1.105800
H     -0.500400   -0.864800   -1.870900
H     -0.569100    0.889100   -1.840600
C     -0.573200   -3.862200   -2.114600
C     -1.348700   -2.902300   -2.764700
C     -1.666000   -3.172200   -4.081800
C     -1.185300   -4.363100   -4.624100
Br    -0.085000   -3.589100   -0.313600
N     -0.132100   -4.989500   -2.666800
N     -0.444300   -5.244000   -3.945200
H     -1.673100   -2.007900   -2.254900
H     -2.262200   -2.491400   -4.672400
H     -1.392500   -4.642500   -5.647700
