22

O      1.225500   -0.000000   -0.000000
C      0.000000   -0.000000   -0.000000
N     -0.713000    0.000000    1.154400
H     -1.712600    0.063700    1.111800
C     -0.806800   -0.008800   -1.275400
C     -0.038900    0.050500    2.435000
H     -0.754300   -0.173300    3.220300
H      0.760300   -0.685200    2.452100
H      0.401600    1.029800    2.616000
H     -1.879900   -0.053500   -1.105800
H     -0.500400   -0.864800   -1.870900
H     -0.569100    0.889100   -1.840600
C      2.259700   -4.579500    3.892000
C      3.500300   -5.002100    3.414700
C      4.199700   -5.868200    4.232700
C      3.603100   -6.229600    5.439700
Br     1.224900   -3.395600    2.850800
N      1.722300   -4.947100    5.052200
N      2.407200   -5.787700    5.840200
H      3.876700   -4.663400    2.461400
H      5.170000   -6.253000    3.953200
H      4.089600   -6.903000    6.131600
