22

O      1.225500   -0.000000   -0.000000
C      0.000000   -0.000000   -0.000000
N     -0.713000    0.000000    1.154400
H     -1.712600    0.063700    1.111800
C     -0.806800   -0.008800   -1.275400
C     -0.038900    0.050500    2.435000
H     -0.754300   -0.173300    3.220300
H      0.760300   -0.685200    2.452100
H      0.401600    1.029800    2.616000
H     -1.879900   -0.053500   -1.105800
H     -0.500400   -0.864800   -1.870900
H     -0.569100    0.889100   -1.840600
C      2.075200    6.168500   -0.848400
C      1.469600    7.230700   -0.177300
C      1.860100    8.495900   -0.571100
C      2.809500    8.584400   -1.588100
Br     1.611300    4.400000   -0.385900
N      2.979500    6.292800   -1.816400
N      3.353100    7.523800   -2.192700
H      0.741600    7.057400    0.600500
H      1.449600    9.384300   -0.112900
H      3.163800    9.539800   -1.949300
