22

O      1.225500   -0.000000   -0.000000
C      0.000000   -0.000000   -0.000000
N     -0.713000    0.000000    1.154400
H     -1.712600    0.063700    1.111800
C     -0.806800   -0.008800   -1.275400
C     -0.038900    0.050500    2.435000
H     -0.754300   -0.173300    3.220300
H      0.760300   -0.685200    2.452100
H      0.401600    1.029800    2.616000
H     -1.879900   -0.053500   -1.105800
H     -0.500400   -0.864800   -1.870900
H     -0.569100    0.889100   -1.840600
C      1.808100    6.180800   -0.974700
C      3.035000    6.823000   -0.808400
C      3.102300    8.125400   -1.264200
C      1.950900    8.662100   -1.838200
Br     1.611300    4.400000   -0.385900
N      0.728900    6.727300   -1.528700
N      0.802400    7.991400   -1.968400
H      3.871600    6.318500   -0.349300
H      4.008100    8.708900   -1.181500
H      1.927200    9.674300   -2.217300
