22

O      1.225500   -0.000000   -0.000000
C      0.000000   -0.000000   -0.000000
N     -0.713000    0.000000    1.154400
H     -1.712600    0.063700    1.111800
C     -0.806800   -0.008800   -1.275400
C     -0.038900    0.050500    2.435000
H     -0.754300   -0.173300    3.220300
H      0.760300   -0.685200    2.452100
H      0.401600    1.029800    2.616000
H     -1.879900   -0.053500   -1.105800
H     -0.500400   -0.864800   -1.870900
H     -0.569100    0.889100   -1.840600
C      2.270300    5.526200   -2.106400
C      3.473800    5.971000   -1.559400
C      4.183300    6.881000   -2.318900
C      3.632600    7.259900   -3.542200
Br     1.225300    4.282300   -1.148700
N      1.776200    5.911700   -3.280000
N      2.470700    6.794900   -4.011000
H      3.815900    5.615800   -0.599200
H      5.127400    7.285900   -1.983200
H      4.129600    7.967400   -4.191300
