22

O      1.225500   -0.000000   -0.000000
C      0.000000   -0.000000   -0.000000
N     -0.713000    0.000000    1.154400
H     -1.712600    0.063700    1.111800
C     -0.806800   -0.008800   -1.275400
C     -0.038900    0.050500    2.435000
H     -0.754300   -0.173300    3.220300
H      0.760300   -0.685200    2.452100
H      0.401600    1.029800    2.616000
H     -1.879900   -0.053500   -1.105800
H     -0.500400   -0.864800   -1.870900
H     -0.569100    0.889100   -1.840600
C      3.991900    4.681300    1.424800
C      5.282100    5.022400    1.830400
C      6.038600    5.724500    0.912200
C      5.444500    6.018900   -0.314100
Br     2.877000    3.721700    2.605000
N      3.458500    4.980600    0.243300
N      4.199100    5.662100   -0.642100
H      5.651900    4.746700    2.806300
H      7.050400    6.035300    1.130400
H      5.974000    6.564900   -1.082400
