22

O      1.225500   -0.000000   -0.000000
C      0.000000   -0.000000   -0.000000
N     -0.713000    0.000000    1.154400
H     -1.712600    0.063700    1.111800
C     -0.806800   -0.008800   -1.275400
C     -0.038900    0.050500    2.435000
H     -0.754300   -0.173300    3.220300
H      0.760300   -0.685200    2.452100
H      0.401600    1.029800    2.616000
H     -1.879900   -0.053500   -1.105800
H     -0.500400   -0.864800   -1.870900
H     -0.569100    0.889100   -1.840600
C      3.632200   -4.720500    2.852800
C      4.125500   -4.812700    1.551500
C      4.966200   -5.879100    1.297800
C      5.235000   -6.746900    2.355200
Br     2.475700   -3.300400    3.302900
N      3.912000   -5.570200    3.837600
N      4.728600   -6.602300    3.583400
H      3.856700   -4.086300    0.799600
H      5.400600   -6.038800    0.321300
H      5.883400   -7.603300    2.233000
