22

O      1.225500   -0.000000   -0.000000
C      0.000000   -0.000000   -0.000000
N     -0.713000    0.000000    1.154400
H     -1.712600    0.063700    1.111800
C     -0.806800   -0.008800   -1.275400
C     -0.038900    0.050500    2.435000
H     -0.754300   -0.173300    3.220300
H      0.760300   -0.685200    2.452100
H      0.401600    1.029800    2.616000
H     -1.879900   -0.053500   -1.105800
H     -0.500400   -0.864800   -1.870900
H     -0.569100    0.889100   -1.840600
C     -2.672800   -5.623500    0.281300
C     -3.137900   -6.031200   -0.968900
C     -4.150100   -6.971300   -0.960300
C     -4.600900   -7.413900    0.282400
Br    -1.291800   -4.343000    0.379500
N     -3.129200   -6.069800    1.448600
N     -4.111400   -6.981900    1.448500
H     -2.721200   -5.626700   -1.878800
H     -4.578600   -7.351500   -1.876500
H     -5.389800   -8.148100    0.369100
