22

O      1.225500   -0.000000   -0.000000
C      0.000000   -0.000000   -0.000000
N     -0.713000    0.000000    1.154400
H     -1.712600    0.063700    1.111800
C     -0.806800   -0.008800   -1.275400
C     -0.038900    0.050500    2.435000
H     -0.754300   -0.173300    3.220300
H      0.760300   -0.685200    2.452100
H      0.401600    1.029800    2.616000
H     -1.879900   -0.053500   -1.105800
H     -0.500400   -0.864800   -1.870900
H     -0.569100    0.889100   -1.840600
C      5.756900   -0.142300   -0.807500
C      6.476300    1.017900   -1.093600
C      7.710900    0.833200   -1.685500
C      8.110300   -0.478800   -1.935000
Br     4.059200    0.000500    0.001200
N      6.172300   -1.380500   -1.061200
N      7.371300   -1.551300   -1.635600
H      6.078100    1.993700   -0.860200
H      8.345200    1.668300   -1.946400
H      9.062700   -0.702100   -2.395400
