22

O      1.225500   -0.000000   -0.000000
C      0.000000   -0.000000   -0.000000
N     -0.713000    0.000000    1.154400
H     -1.712600    0.063700    1.111800
C     -0.806800   -0.008800   -1.275400
C     -0.038900    0.050500    2.435000
H     -0.754300   -0.173300    3.220300
H      0.760300   -0.685200    2.452100
H      0.401600    1.029800    2.616000
H     -1.879900   -0.053500   -1.105800
H     -0.500400   -0.864800   -1.870900
H     -0.569100    0.889100   -1.840600
C      4.627400   -0.616300   -5.247700
C      4.996700    0.617200   -5.783900
C      5.866000    0.574200   -6.856700
C      6.282800   -0.683000   -7.291700
Br     3.444000   -0.667500   -3.780200
N      5.047100   -1.798300   -5.691200
N      5.890500   -1.831600   -6.732500
H      4.617200    1.540600   -5.373600
H      6.212000    1.475200   -7.342700
H      6.962200   -0.796400   -8.125100
