22

O      1.225500   -0.000000   -0.000000
C      0.000000   -0.000000   -0.000000
N     -0.713000    0.000000    1.154400
H     -1.712600    0.063700    1.111800
C     -0.806800   -0.008800   -1.275400
C     -0.038900    0.050500    2.435000
H     -0.754300   -0.173300    3.220300
H      0.760300   -0.685200    2.452100
H      0.401600    1.029800    2.616000
H     -1.879900   -0.053500   -1.105800
H     -0.500400   -0.864800   -1.870900
H     -0.569100    0.889100   -1.840600
C      5.829300    1.516500    3.348100
C      6.381800    2.787700    3.503800
C      7.489300    2.868900    4.325600
C      7.939300    1.686300    4.910600
Br     4.314400    1.297500    2.246300
N      6.288000    0.408500    3.924300
N      7.363000    0.495700    4.720200
H      5.957500    3.645900    3.005300
H      7.990200    3.808300    4.510900
H      8.799700    1.670900    5.565200
