22

O      1.225500   -0.000000   -0.000000
C      0.000000   -0.000000   -0.000000
N     -0.713000    0.000000    1.154400
H     -1.712600    0.063700    1.111800
C     -0.806800   -0.008800   -1.275400
C     -0.038900    0.050500    2.435000
H     -0.754300   -0.173300    3.220300
H      0.760300   -0.685200    2.452100
H      0.401600    1.029800    2.616000
H     -1.879900   -0.053500   -1.105800
H     -0.500400   -0.864800   -1.870900
H     -0.569100    0.889100   -1.840600
C     -0.386500    4.807100   -0.978000
C     -0.911300    5.780900   -0.128400
C     -1.854400    6.623500   -0.684200
C     -2.184100    6.419200   -2.023200
Br     0.908300    3.606000   -0.316600
N     -0.726900    4.642700   -2.253600
N     -1.642800    5.464400   -2.785500
H     -0.589100    5.858000    0.898900
H     -2.320700    7.410500   -0.109000
H     -2.913400    7.038500   -2.526800
