22

O      1.225500   -0.000000   -0.000000
C      0.000000   -0.000000   -0.000000
N     -0.713000    0.000000    1.154400
H     -1.712600    0.063700    1.111800
C     -0.806800   -0.008800   -1.275400
C     -0.038900    0.050500    2.435000
H     -0.754300   -0.173300    3.220300
H      0.760300   -0.685200    2.452100
H      0.401600    1.029800    2.616000
H     -1.879900   -0.053500   -1.105800
H     -0.500400   -0.864800   -1.870900
H     -0.569100    0.889100   -1.840600
C     -3.445100    4.026800    2.797800
C     -4.750300    3.792900    3.230800
C     -5.278600    4.733400    4.093700
C     -4.464500    5.810100    4.442100
Br    -2.631100    2.802000    1.617200
N     -2.697800    5.068600    3.153100
N     -3.217700    5.976700    3.990800
H     -5.300500    2.924500    2.901800
H     -6.281500    4.643100    4.485800
H     -4.808500    6.585500    5.112400
