22

O      1.225500   -0.000000   -0.000000
C      0.000000   -0.000000   -0.000000
N     -0.713000    0.000000    1.154400
H     -1.712600    0.063700    1.111800
C     -0.806800   -0.008800   -1.275400
C     -0.038900    0.050500    2.435000
H     -0.754300   -0.173300    3.220300
H      0.760300   -0.685200    2.452100
H      0.401600    1.029800    2.616000
H     -1.879900   -0.053500   -1.105800
H     -0.500400   -0.864800   -1.870900
H     -0.569100    0.889100   -1.840600
C     -2.476800    4.464800    1.909100
C     -2.778600    5.103700    3.111600
C     -3.401400    6.332000    3.003900
C     -3.663400    6.805500    1.719200
Br    -1.625600    2.782300    1.946200
N     -2.743100    4.949400    0.699000
N     -3.347600    6.141900    0.603000
H     -2.533500    4.651800    4.060800
H     -3.676600    6.906700    3.876700
H     -4.147800    7.758000    1.555400
