22

O      1.224000    0.000000    0.000000
C      0.000000    0.000000    0.000000
N     -0.718000    0.000000    1.154000
H     -1.717000    0.061000    1.108000
C     -0.809000   -0.010000   -1.276000
C     -0.049000    0.046000    2.436000
H     -0.777000   -0.133000    3.221000
H      0.720000   -0.720000    2.476000
H      0.429000    1.010000    2.602000
H     -1.882000   -0.038000   -1.106000
H     -0.515000   -0.876000   -1.863000
H     -0.559000    0.879000   -1.850000
C      4.820600    4.456500   -1.152500
C      5.140800    5.537900   -0.331800
C      5.335100    6.746300   -0.972400
C      5.193600    6.764700   -2.359100
Br     4.535200    2.761600   -0.376300
N      4.694000    4.513200   -2.475700
N      4.884100    5.689400   -3.089800
H      5.227600    5.420700    0.737700
H      5.586700    7.643800   -0.425700
H      5.330300    7.672900   -2.929500
