22

O      1.224000    0.000000    0.000000
C      0.000000    0.000000    0.000000
N     -0.718000    0.000000    1.154000
H     -1.717000    0.061000    1.108000
C     -0.809000   -0.010000   -1.276000
C     -0.049000    0.046000    2.436000
H     -0.777000   -0.133000    3.221000
H      0.720000   -0.720000    2.476000
H      0.429000    1.010000    2.602000
H     -1.882000   -0.038000   -1.106000
H     -0.515000   -0.876000   -1.863000
H     -0.559000    0.879000   -1.850000
C      5.154300   -0.242300   -2.186700
C      4.922800   -0.655300   -0.874700
C      5.255900   -1.964400   -0.585400
C      5.784100   -2.733500   -1.621100
Br     4.733500    1.527300   -2.684900
N      5.661200   -1.007200   -3.150000
N      5.981800   -2.276300   -2.861200
H      4.507700    0.019800   -0.141800
H      5.114800   -2.380400    0.402000
H      6.068200   -3.765800   -1.470800
