22

O      1.224000    0.000000    0.000000
C      0.000000    0.000000    0.000000
N     -0.718000    0.000000    1.154000
H     -1.717000    0.061000    1.108000
C     -0.809000   -0.010000   -1.276000
C     -0.049000    0.046000    2.436000
H     -0.777000   -0.133000    3.221000
H      0.720000   -0.720000    2.476000
H      0.429000    1.010000    2.602000
H     -1.882000   -0.038000   -1.106000
H     -0.515000   -0.876000   -1.863000
H     -0.559000    0.879000   -1.850000
C     -1.622100    3.436800   -2.974400
C     -0.254600    3.176300   -3.060800
C      0.369900    3.601300   -4.217400
C     -0.419300    4.240800   -5.172100
Br    -2.569000    2.896900   -1.435400
N     -2.343000    4.051200   -3.908700
N     -1.729600    4.460600   -5.028000
H      0.269200    2.671900   -2.263000
H      1.427000    3.446800   -4.380600
H     -0.001400    4.601100   -6.101900
