22

O      1.224000    0.000000    0.000000
C      0.000000    0.000000    0.000000
N     -0.718000    0.000000    1.154000
H     -1.717000    0.061000    1.108000
C     -0.809000   -0.010000   -1.276000
C     -0.049000    0.046000    2.436000
H     -0.777000   -0.133000    3.221000
H      0.720000   -0.720000    2.476000
H      0.429000    1.010000    2.602000
H     -1.882000   -0.038000   -1.106000
H     -0.515000   -0.876000   -1.863000
H     -0.559000    0.879000   -1.850000
C      0.121100   -0.354800   -3.628100
C     -1.005700   -1.176900   -3.625700
C     -2.214400   -0.545300   -3.405400
C     -2.188200    0.834700   -3.209700
Br     1.820300   -1.119000   -3.920000
N      0.106200    0.961800   -3.437200
N     -1.070500    1.567200   -3.224100
H     -0.921100   -2.240700   -3.787700
H     -3.145300   -1.093800   -3.384600
H     -3.093800    1.397900   -3.031800
