22

O      1.224000    0.000000    0.000000
C      0.000000    0.000000    0.000000
N     -0.718000    0.000000    1.154000
H     -1.717000    0.061000    1.108000
C     -0.809000   -0.010000   -1.276000
C     -0.049000    0.046000    2.436000
H     -0.777000   -0.133000    3.221000
H      0.720000   -0.720000    2.476000
H      0.429000    1.010000    2.602000
H     -1.882000   -0.038000   -1.106000
H     -0.515000   -0.876000   -1.863000
H     -0.559000    0.879000   -1.850000
C      1.226400   -3.432700   -3.840500
C      0.212400   -2.841500   -3.087000
C     -1.056100   -3.356700   -3.270800
C     -1.195200   -4.403900   -4.180400
Br     2.995000   -2.802400   -3.663300
N      1.054500   -4.433000   -4.700700
N     -0.179400   -4.927300   -4.873400
H      0.423100   -2.031100   -2.405800
H     -1.909400   -2.967600   -2.733900
H     -2.156300   -4.858200   -4.377000
