22

O      1.225500   -0.000000   -0.000000
C      0.000000   -0.000000   -0.000000
N     -0.713000    0.000000    1.154400
H     -1.712600    0.063700    1.111800
C     -0.806800   -0.008800   -1.275400
C     -0.038900    0.050500    2.435000
H     -0.754300   -0.173300    3.220300
H      0.760300   -0.685200    2.452100
H      0.401600    1.029800    2.616000
H     -1.879900   -0.053500   -1.105800
H     -0.500400   -0.864800   -1.870900
H     -0.569100    0.889100   -1.840600
C      4.092900   -5.126500    1.251100
C      4.203400   -5.604900   -0.054400
C      4.441100   -6.959600   -0.183700
C      4.545700   -7.705100    0.989600
Br     3.768400   -3.290800    1.536800
N      4.198900   -5.870800    2.348700
N      4.429600   -7.184400    2.214800
H      4.106400   -4.943200   -0.901700
H      4.542700   -7.427500   -1.152500
H      4.730900   -8.770100    0.968200
