22

O      1.225500   -0.000000   -0.000000
C      0.000000   -0.000000   -0.000000
N     -0.713000    0.000000    1.154400
H     -1.712600    0.063700    1.111800
C     -0.806800   -0.008800   -1.275400
C     -0.038900    0.050500    2.435000
H     -0.754300   -0.173300    3.220300
H      0.760300   -0.685200    2.452100
H      0.401600    1.029800    2.616000
H     -1.879900   -0.053500   -1.105800
H     -0.500400   -0.864800   -1.870900
H     -0.569100    0.889100   -1.840600
C      3.956200   -5.072000   -0.300100
C      3.904700   -5.347100    1.066300
C      3.817400   -6.681900    1.411400
C      3.789800   -7.610400    0.371900
Br     4.076300   -3.280500   -0.876900
N      3.927400   -5.987500   -1.265100
N      3.842600   -7.280500   -0.922000
H      3.932500   -4.553200    1.797100
H      3.772200   -6.999000    2.443500
H      3.722400   -8.672300    0.563900
