22

O      1.225500   -0.000000   -0.000000
C      0.000000   -0.000000   -0.000000
N     -0.713000    0.000000    1.154400
H     -1.712600    0.063700    1.111800
C     -0.806800   -0.008800   -1.275400
C     -0.038900    0.050500    2.435000
H     -0.754300   -0.173300    3.220300
H      0.760300   -0.685200    2.452100
H      0.401600    1.029800    2.616000
H     -1.879900   -0.053500   -1.105800
H     -0.500400   -0.864800   -1.870900
H     -0.569100    0.889100   -1.840600
C      6.890800    2.757400    0.707700
C      7.372400    3.606300   -0.288700
C      8.093200    4.701500    0.146500
C      8.265600    4.847800    1.522100
Br     5.894200    1.232800    0.218800
N      7.076200    2.930400    2.013700
N      7.776600    3.995600    2.427900
H      7.184500    3.405300   -1.332500
H      8.508700    5.418800   -0.546800
H      8.817700    5.679300    1.937500
