22

O      1.225500   -0.000000   -0.000000
C      0.000000   -0.000000   -0.000000
N     -0.713000    0.000000    1.154400
H     -1.712600    0.063700    1.111800
C     -0.806800   -0.008800   -1.275400
C     -0.038900    0.050500    2.435000
H     -0.754300   -0.173300    3.220300
H      0.760300   -0.685200    2.452100
H      0.401600    1.029800    2.616000
H     -1.879900   -0.053500   -1.105800
H     -0.500400   -0.864800   -1.870900
H     -0.569100    0.889100   -1.840600
C      2.822700    0.282900   -4.392500
C      3.764900    1.294600   -4.207700
C      4.314700    1.826000   -5.358300
C      3.878600    1.304400   -6.575200
Br     2.012000   -0.509500   -2.885300
N      2.431000   -0.189700   -5.572800
N      2.969300    0.331200   -6.684500
H      4.036800    1.630600   -3.218600
H      5.053300    2.614100   -5.322100
H      4.263200    1.669600   -7.517300
