22

O      1.225500   -0.000000   -0.000000
C      0.000000   -0.000000   -0.000000
N     -0.713000    0.000000    1.154400
H     -1.712600    0.063700    1.111800
C     -0.806800   -0.008800   -1.275400
C     -0.038900    0.050500    2.435000
H     -0.754300   -0.173300    3.220300
H      0.760300   -0.685200    2.452100
H      0.401600    1.029800    2.616000
H     -1.879900   -0.053500   -1.105800
H     -0.500400   -0.864800   -1.870900
H     -0.569100    0.889100   -1.840600
C      2.986000   -0.516600   -4.500200
C      2.296900   -0.511800   -5.712900
C      3.078100   -0.517500   -6.852200
C      4.461300   -0.527300   -6.678800
Br     2.012000   -0.509500   -2.885300
N      4.310400   -0.526000   -4.374500
N      5.061400   -0.531400   -5.484700
H      1.217900   -0.504100   -5.741900
H      2.640100   -0.514500   -7.840100
H      5.137000   -0.532200   -7.522800
