22

O      1.225500   -0.000000   -0.000000
C      0.000000   -0.000000   -0.000000
N     -0.713000    0.000000    1.154400
H     -1.712600    0.063700    1.111800
C     -0.806800   -0.008800   -1.275400
C     -0.038900    0.050500    2.435000
H     -0.754300   -0.173300    3.220300
H      0.760300   -0.685200    2.452100
H      0.401600    1.029800    2.616000
H     -1.879900   -0.053500   -1.105800
H     -0.500400   -0.864800   -1.870900
H     -0.569100    0.889100   -1.840600
C      2.894400    3.658700    2.039100
C      3.103400    4.803300    1.270000
C      3.510000    5.929100    1.959700
C      3.669100    5.810800    3.339500
Br     2.337700    2.067600    1.193400
N      3.057000    3.584200    3.357500
N      3.451700    4.681000    4.019300
H      2.952100    4.793300    0.201300
H      3.698500    6.865900    1.455000
H      3.984600    6.648200    3.946200
