22

O      1.225500   -0.000000   -0.000000
C      0.000000   -0.000000   -0.000000
N     -0.713000    0.000000    1.154400
H     -1.712600    0.063700    1.111800
C     -0.806800   -0.008800   -1.275400
C     -0.038900    0.050500    2.435000
H     -0.754300   -0.173300    3.220300
H      0.760300   -0.685200    2.452100
H      0.401600    1.029800    2.616000
H     -1.879900   -0.053500   -1.105800
H     -0.500400   -0.864800   -1.870900
H     -0.569100    0.889100   -1.840600
C      3.099300    0.443500   -3.981600
C      3.803500    1.577400   -4.386400
C      4.030500    1.695400   -5.743900
C      3.539100    0.681500   -6.564800
Br     2.736900    0.187700   -2.148600
N      2.645200   -0.504900   -4.796700
N      2.869600   -0.383000   -6.112600
H      4.143500    2.309000   -3.669300
H      4.566600    2.537300   -6.158000
H      3.677800    0.704700   -7.636700
