22

O      1.225500   -0.000000   -0.000000
C      0.000000   -0.000000   -0.000000
N     -0.713000    0.000000    1.154400
H     -1.712600    0.063700    1.111800
C     -0.806800   -0.008800   -1.275400
C     -0.038900    0.050500    2.435000
H     -0.754300   -0.173300    3.220300
H      0.760300   -0.685200    2.452100
H      0.401600    1.029800    2.616000
H     -1.879900   -0.053500   -1.105800
H     -0.500400   -0.864800   -1.870900
H     -0.569100    0.889100   -1.840600
C      5.356500    0.644900   -2.752900
C      5.760100    1.946900   -3.048400
C      6.416100    2.118000   -4.252100
C      6.607200    0.985700   -5.042500
Br     4.452500    0.304200   -1.133200
N      5.557400   -0.412900   -3.534400
N      6.194600   -0.238600   -4.700700
H      5.563900    2.760600   -2.366800
H      6.768800    3.087800   -4.572800
H      7.112000    1.041100   -5.997000
