22

O      1.225500   -0.000000   -0.000000
C      0.000000   -0.000000   -0.000000
N     -0.713000    0.000000    1.154400
H     -1.712600    0.063700    1.111800
C     -0.806800   -0.008800   -1.275400
C     -0.038900    0.050500    2.435000
H     -0.754300   -0.173300    3.220300
H      0.760300   -0.685200    2.452100
H      0.401600    1.029800    2.616000
H     -1.879900   -0.053500   -1.105800
H     -0.500400   -0.864800   -1.870900
H     -0.569100    0.889100   -1.840600
C      6.163700    0.245600   -0.782600
C      6.982700    0.506800   -1.881000
C      8.220700    1.049600   -1.596500
C      8.525100    1.279700   -0.255700
Br     4.452600   -0.496100   -1.062900
N      6.489900    0.479300    0.485900
N      7.693000    1.006100    0.753700
H      6.653700    0.291900   -2.886400
H      8.928300    1.288100   -2.377700
H      9.474000    1.702000    0.044400
