22

O      1.225500   -0.000000   -0.000000
C      0.000000   -0.000000   -0.000000
N     -0.713000    0.000000    1.154400
H     -1.712600    0.063700    1.111800
C     -0.806800   -0.008800   -1.275400
C     -0.038900    0.050500    2.435000
H     -0.754300   -0.173300    3.220300
H      0.760300   -0.685200    2.452100
H      0.401600    1.029800    2.616000
H     -1.879900   -0.053500   -1.105800
H     -0.500400   -0.864800   -1.870900
H     -0.569100    0.889100   -1.840600
C      3.073100    5.150900   -3.922700
C      3.110400    6.540200   -3.805200
C      3.202500    7.244900   -4.989900
C      3.248400    6.506200   -6.171200
Br     2.947900    4.096000   -2.364500
N      3.119200    4.480100   -5.070800
N      3.208500    5.171100   -6.215900
H      3.069000    7.020200   -2.839300
H      3.237900    8.324800   -5.005900
H      3.320500    6.987400   -7.136600
