22

O      1.225500   -0.000000   -0.000000
C      0.000000   -0.000000   -0.000000
N     -0.713000    0.000000    1.154400
H     -1.712600    0.063700    1.111800
C     -0.806800   -0.008800   -1.275400
C     -0.038900    0.050500    2.435000
H     -0.754300   -0.173300    3.220300
H      0.760300   -0.685200    2.452100
H      0.401600    1.029800    2.616000
H     -1.879900   -0.053500   -1.105800
H     -0.500400   -0.864800   -1.870900
H     -0.569100    0.889100   -1.840600
C      4.247000    1.292300    5.771600
C      4.870600    2.372600    6.395800
C      5.811700    2.055000    7.356000
C      6.041800    0.702500    7.602800
Br     2.946200    1.618000    4.445500
N      4.493800    0.011700    6.034700
N      5.408300   -0.288100    6.967700
H      4.621400    3.389400    6.132800
H      6.350400    2.820000    7.896700
H      6.763100    0.376900    8.339500
