22

O      1.225500   -0.000000   -0.000000
C      0.000000   -0.000000   -0.000000
N     -0.713000    0.000000    1.154400
H     -1.712600    0.063700    1.111800
C     -0.806800   -0.008800   -1.275400
C     -0.038900    0.050500    2.435000
H     -0.754300   -0.173300    3.220300
H      0.760300   -0.685200    2.452100
H      0.401600    1.029800    2.616000
H     -1.879900   -0.053500   -1.105800
H     -0.500400   -0.864800   -1.870900
H     -0.569100    0.889100   -1.840600
C      4.395900   -3.985500    3.046700
C      5.073400   -2.770000    3.141500
C      6.439500   -2.852400    3.329500
C      6.998600   -4.127200    3.404900
Br     2.527600   -3.983000    2.789400
N      4.965500   -5.185400    3.123600
N      6.291500   -5.256800    3.306100
H      4.547000   -1.830300    3.070200
H      7.054400   -1.967900    3.415300
H      8.060200   -4.271300    3.550900
