22

O      1.225500   -0.000000   -0.000000
C      0.000000   -0.000000   -0.000000
N     -0.713000    0.000000    1.154400
H     -1.712600    0.063700    1.111800
C     -0.806800   -0.008800   -1.275400
C     -0.038900    0.050500    2.435000
H     -0.754300   -0.173300    3.220300
H      0.760300   -0.685200    2.452100
H      0.401600    1.029800    2.616000
H     -1.879900   -0.053500   -1.105800
H     -0.500400   -0.864800   -1.870900
H     -0.569100    0.889100   -1.840600
C      3.872800    1.531800    6.139300
C      4.236900    2.878200    6.134500
C      4.912600    3.325800    7.253200
C      5.160500    2.398300    8.263900
Br     2.946200    0.821000    4.658500
N      4.127700    0.675300    7.125000
N      4.783800    1.117400    8.207100
H      3.997500    3.518300    5.299000
H      5.238000    4.352100    7.346200
H      5.683700    2.674400    9.168800
