22

O      1.225500   -0.000000   -0.000000
C      0.000000   -0.000000   -0.000000
N     -0.713000    0.000000    1.154400
H     -1.712600    0.063700    1.111800
C     -0.806800   -0.008800   -1.275400
C     -0.038900    0.050500    2.435000
H     -0.754300   -0.173300    3.220300
H      0.760300   -0.685200    2.452100
H      0.401600    1.029800    2.616000
H     -1.879900   -0.053500   -1.105800
H     -0.500400   -0.864800   -1.870900
H     -0.569100    0.889100   -1.840600
C      2.399200    3.010300   -4.345300
C      2.862200    4.022900   -3.505300
C      3.717000    4.942600   -4.081300
C      4.028300    4.769300   -5.429100
Br     1.226700    1.703700   -3.656200
N      2.719400    2.877500   -5.629800
N      3.549400    3.773900   -6.181300
H      2.561100    4.070700   -2.469800
H      4.130500    5.764800   -3.514900
H      4.690100    5.448400   -5.948500
