22

O      1.225500   -0.000000   -0.000000
C      0.000000   -0.000000   -0.000000
N     -0.713000    0.000000    1.154400
H     -1.712600    0.063700    1.111800
C     -0.806800   -0.008800   -1.275400
C     -0.038900    0.050500    2.435000
H     -0.754300   -0.173300    3.220300
H      0.760300   -0.685200    2.452100
H      0.401600    1.029800    2.616000
H     -1.879900   -0.053500   -1.105800
H     -0.500400   -0.864800   -1.870900
H     -0.569100    0.889100   -1.840600
C      3.855700    4.943600    3.396200
C      3.249100    6.021900    2.752300
C      3.451700    7.261400    3.327700
C      4.233100    7.310800    4.481000
Br     3.640700    3.207800    2.690900
N      4.596200    5.030300    4.498100
N      4.788100    6.236600    5.050300
H      2.660000    5.879400    1.859100
H      3.024200    8.159400    2.905000
H      4.435600    8.244300    4.987300
