22

O      1.225500   -0.000000   -0.000000
C      0.000000   -0.000000   -0.000000
N     -0.713000    0.000000    1.154400
H     -1.712600    0.063700    1.111800
C     -0.806800   -0.008800   -1.275400
C     -0.038900    0.050500    2.435000
H     -0.754300   -0.173300    3.220300
H      0.760300   -0.685200    2.452100
H      0.401600    1.029800    2.616000
H     -1.879900   -0.053500   -1.105800
H     -0.500400   -0.864800   -1.870900
H     -0.569100    0.889100   -1.840600
C      2.918000   -4.797200    2.156100
C      4.256300   -4.406900    2.201400
C      5.180500   -5.428000    2.308500
C      4.689600   -6.731800    2.360000
Br     1.576800   -3.479400    2.010300
N      2.487100   -6.054900    2.207900
N      3.390200   -7.039900    2.311800
H      4.536100   -3.365400    2.154500
H      6.242000   -5.229900    2.351000
H      5.351700   -7.582400    2.443700
