22

O      1.225500   -0.000000   -0.000000
C      0.000000   -0.000000   -0.000000
N     -0.713000    0.000000    1.154400
H     -1.712600    0.063700    1.111800
C     -0.806800   -0.008800   -1.275400
C     -0.038900    0.050500    2.435000
H     -0.754300   -0.173300    3.220300
H      0.760300   -0.685200    2.452100
H      0.401600    1.029800    2.616000
H     -1.879900   -0.053500   -1.105800
H     -0.500400   -0.864800   -1.870900
H     -0.569100    0.889100   -1.840600
C      5.079700   -2.270000    1.737400
C      4.143400   -2.444700    0.718500
C      3.671400   -3.731400    0.545200
C      4.171800   -4.715800    1.396000
Br     5.786800   -0.551000    2.056200
N      5.534300   -3.236500    2.530800
N      5.071400   -4.482300    2.356300
H      3.817800   -1.614000    0.110900
H      2.943800   -3.970600   -0.217100
H      3.849800   -5.745200    1.320800
