22

O      1.225500   -0.000000   -0.000000
C      0.000000   -0.000000   -0.000000
N     -0.713000    0.000000    1.154400
H     -1.712600    0.063700    1.111800
C     -0.806800   -0.008800   -1.275400
C     -0.038900    0.050500    2.435000
H     -0.754300   -0.173300    3.220300
H      0.760300   -0.685200    2.452100
H      0.401600    1.029800    2.616000
H     -1.879900   -0.053500   -1.105800
H     -0.500400   -0.864800   -1.870900
H     -0.569100    0.889100   -1.840600
C     -0.867100    5.117200   -1.127900
C      0.383100    5.715700   -0.972000
C      0.554100    6.931900   -1.604500
C     -0.526900    7.434300   -2.327200
Br    -1.203200    3.454300   -0.304200
N     -1.876800    5.628500   -1.827300
N     -1.702800    6.809000   -2.438000
H      1.159300    5.243800   -0.389000
H      1.485900    7.476000   -1.544700
H     -0.468300    8.379600   -2.848600
