22

O      1.225500   -0.000000   -0.000000
C      0.000000   -0.000000   -0.000000
N     -0.713000    0.000000    1.154400
H     -1.712600    0.063700    1.111800
C     -0.806800   -0.008800   -1.275400
C     -0.038900    0.050500    2.435000
H     -0.754300   -0.173300    3.220300
H      0.760300   -0.685200    2.452100
H      0.401600    1.029800    2.616000
H     -1.879900   -0.053500   -1.105800
H     -0.500400   -0.864800   -1.870900
H     -0.569100    0.889100   -1.840600
C      2.769900    1.792900   -3.308500
C      2.308000    2.721500   -4.241100
C      2.152500    4.014600   -3.780700
C      2.469000    4.260200   -2.445500
Br     3.016300   -0.000800   -3.836300
N      3.062100    2.065600   -2.039500
N      2.908600    3.322800   -1.600500
H      2.089800    2.430800   -5.257500
H      1.800200    4.807400   -4.425000
H      2.372700    5.246700   -2.013700
