22

O      1.225500   -0.000000   -0.000000
C      0.000000   -0.000000   -0.000000
N     -0.713000    0.000000    1.154400
H     -1.712600    0.063700    1.111800
C     -0.806800   -0.008800   -1.275400
C     -0.038900    0.050500    2.435000
H     -0.754300   -0.173300    3.220300
H      0.760300   -0.685200    2.452100
H      0.401600    1.029800    2.616000
H     -1.879900   -0.053500   -1.105800
H     -0.500400   -0.864800   -1.870900
H     -0.569100    0.889100   -1.840600
C      4.221300    0.490000   -3.289900
C      4.399600    1.838300   -3.599400
C      5.371200    2.119200   -4.540400
C      6.068700    1.040000   -5.080900
Br     2.919200   -0.000300   -2.016800
N      4.908000   -0.514400   -3.828200
N      5.849000   -0.233500   -4.740500
H      3.805900    2.603700   -3.123200
H      5.585800    3.132400   -4.848600
H      6.843000    1.181200   -5.822100
