22

O      1.225500   -0.000000   -0.000000
C      0.000000   -0.000000   -0.000000
N     -0.713000    0.000000    1.154400
H     -1.712600    0.063700    1.111800
C     -0.806800   -0.008800   -1.275400
C     -0.038900    0.050500    2.435000
H     -0.754300   -0.173300    3.220300
H      0.760300   -0.685200    2.452100
H      0.401600    1.029800    2.616000
H     -1.879900   -0.053500   -1.105800
H     -0.500400   -0.864800   -1.870900
H     -0.569100    0.889100   -1.840600
C      4.595300   -1.044300   -2.807700
C      5.136100   -0.058600   -3.633100
C      6.238200   -0.431500   -4.377900
C      6.695100   -1.740400   -4.232200
Br     3.088600   -0.637100   -1.749100
N      5.060300   -2.285800   -2.695100
N      6.130000   -2.639800   -3.421100
H      4.707200    0.931100   -3.675800
H      6.730000    0.259400   -5.047700
H      7.551800   -2.104800   -4.781900
