22

O      1.225500   -0.000000   -0.000000
C      0.000000   -0.000000   -0.000000
N     -0.713000    0.000000    1.154400
H     -1.712600    0.063700    1.111800
C     -0.806800   -0.008800   -1.275400
C     -0.038900    0.050500    2.435000
H     -0.754300   -0.173300    3.220300
H      0.760300   -0.685200    2.452100
H      0.401600    1.029800    2.616000
H     -1.879900   -0.053500   -1.105800
H     -0.500400   -0.864800   -1.870900
H     -0.569100    0.889100   -1.840600
C      4.879600    2.157900    0.946800
C      5.530600    3.245900    0.365600
C      6.841100    3.444700    0.754900
C      7.376300    2.548800    1.679100
Br     3.087300    1.799200    0.482300
N      5.424900    1.322900    1.827400
N      6.696900    1.522600    2.200100
H      5.026500    3.884300   -0.344000
H      7.431800    4.260000    0.362200
H      8.394500    2.640200    2.031000
