22

O      1.225500   -0.000000   -0.000000
C      0.000000   -0.000000   -0.000000
N     -0.713000    0.000000    1.154400
H     -1.712600    0.063700    1.111800
C     -0.806800   -0.008800   -1.275400
C     -0.038900    0.050500    2.435000
H     -0.754300   -0.173300    3.220300
H      0.760300   -0.685200    2.452100
H      0.401600    1.029800    2.616000
H     -1.879900   -0.053500   -1.105800
H     -0.500400   -0.864800   -1.870900
H     -0.569100    0.889100   -1.840600
C      6.760200    3.359300   -0.987400
C      7.624600    3.712100   -2.023600
C      8.756800    4.412300   -1.654500
C      8.921100    4.693300   -0.299000
Br     5.185200    2.401300   -1.385200
N      6.951300    3.646100    0.297700
N      8.052400    4.325700    0.647700
H      7.407200    3.446400   -3.047000
H      9.488600    4.731500   -2.382700
H      9.781500    5.237000    0.065500
