22

O      1.225500   -0.000000   -0.000000
C      0.000000   -0.000000   -0.000000
N     -0.713000    0.000000    1.154400
H     -1.712600    0.063700    1.111800
C     -0.806800   -0.008800   -1.275400
C     -0.038900    0.050500    2.435000
H     -0.754300   -0.173300    3.220300
H      0.760300   -0.685200    2.452100
H      0.401600    1.029800    2.616000
H     -1.879900   -0.053500   -1.105800
H     -0.500400   -0.864800   -1.870900
H     -0.569100    0.889100   -1.840600
C     -3.153900   -4.163500   -2.747900
C     -4.304300   -4.769700   -2.243300
C     -4.623600   -6.001700   -2.780500
C     -3.774400   -6.510700   -3.761900
Br    -2.630200   -2.479000   -2.080900
N     -2.366800   -4.681700   -3.687000
N     -2.683500   -5.877500   -4.203200
H     -4.898200   -4.291500   -1.479200
H     -5.495000   -6.552800   -2.456800
H     -3.959300   -7.468400   -4.228400
