22

O      1.225500   -0.000000   -0.000000
C      0.000000   -0.000000   -0.000000
N     -0.713000    0.000000    1.154400
H     -1.712600    0.063700    1.111800
C     -0.806800   -0.008800   -1.275400
C     -0.038900    0.050500    2.435000
H     -0.754300   -0.173300    3.220300
H      0.760300   -0.685200    2.452100
H      0.401600    1.029800    2.616000
H     -1.879900   -0.053500   -1.105800
H     -0.500400   -0.864800   -1.870900
H     -0.569100    0.889100   -1.840600
C     -3.093300    3.583500    3.869100
C     -3.860700    4.364500    3.005000
C     -4.626900    5.348600    3.599000
C     -4.557900    5.462000    4.986700
Br    -2.011500    2.212000    3.158300
N     -3.053500    3.722100    5.191700
N     -3.799800    4.679300    5.760400
H     -3.845400    4.197000    1.938700
H     -5.255900    6.006400    3.016500
H     -5.128500    6.208000    5.522200
