22

O      1.225500   -0.000000   -0.000000
C      0.000000   -0.000000   -0.000000
N     -0.713000    0.000000    1.154400
H     -1.712600    0.063700    1.111800
C     -0.806800   -0.008800   -1.275400
C     -0.038900    0.050500    2.435000
H     -0.754300   -0.173300    3.220300
H      0.760300   -0.685200    2.452100
H      0.401600    1.029800    2.616000
H     -1.879900   -0.053500   -1.105800
H     -0.500400   -0.864800   -1.870900
H     -0.569100    0.889100   -1.840600
C     -2.467000    3.876300    3.919400
C     -1.584400    4.482500    4.813200
C     -1.986900    5.699300    5.328800
C     -3.220700    6.194600    4.909600
Br    -2.011500    2.212000    3.158300
N     -3.638800    4.381100    3.542400
N     -4.022200    5.562200    4.047200
H     -0.647200    4.015700    5.075700
H     -1.374200    6.249000    6.029000
H     -3.602400    7.139900    5.269500
