22

O      1.225500   -0.000000   -0.000000
C      0.000000   -0.000000   -0.000000
N     -0.713000    0.000000    1.154400
H     -1.712600    0.063700    1.111800
C     -0.806800   -0.008800   -1.275400
C     -0.038900    0.050500    2.435000
H     -0.754300   -0.173300    3.220300
H      0.760300   -0.685200    2.452100
H      0.401600    1.029800    2.616000
H     -1.879900   -0.053500   -1.105800
H     -0.500400   -0.864800   -1.870900
H     -0.569100    0.889100   -1.840600
C      1.184700    2.877700   -0.015100
C      0.595700    3.972500    0.617200
C     -0.623200    4.379800    0.110200
C     -1.137200    3.664500   -0.970300
Br     2.850200    2.242500    0.600800
N      0.662200    2.219200   -1.046300
N     -0.520700    2.620600   -1.532400
H      1.076400    4.460900    1.451300
H     -1.160500    5.218000    0.530300
H     -2.085300    3.924000   -1.420500
