22

O      1.225500   -0.000000   -0.000000
C      0.000000   -0.000000   -0.000000
N     -0.713000    0.000000    1.154400
H     -1.712600    0.063700    1.111800
C     -0.806800   -0.008800   -1.275400
C     -0.038900    0.050500    2.435000
H     -0.754300   -0.173300    3.220300
H      0.760300   -0.685200    2.452100
H      0.401600    1.029800    2.616000
H     -1.879900   -0.053500   -1.105800
H     -0.500400   -0.864800   -1.870900
H     -0.569100    0.889100   -1.840600
C      3.485900   -3.029200   -2.204100
C      4.489400   -3.676800   -1.483600
C      4.753800   -4.981200   -1.854000
C      4.000200   -5.514400   -2.898600
Br     3.047800   -1.245300   -1.777000
N      2.786800   -3.572400   -3.197200
N      3.049400   -4.838500   -3.550500
H      5.018000   -3.174700   -0.687600
H      5.512700   -5.568800   -1.357400
H      4.150100   -6.527800   -3.243900
