22

O      1.225500   -0.000000   -0.000000
C      0.000000   -0.000000   -0.000000
N     -0.713000    0.000000    1.154400
H     -1.712600    0.063700    1.111800
C     -0.806800   -0.008800   -1.275400
C     -0.038900    0.050500    2.435000
H     -0.754300   -0.173300    3.220300
H      0.760300   -0.685200    2.452100
H      0.401600    1.029800    2.616000
H     -1.879900   -0.053500   -1.105800
H     -0.500400   -0.864800   -1.870900
H     -0.569100    0.889100   -1.840600
C      5.976100    0.318900    2.368600
C      6.167100    1.694400    2.498800
C      7.163800    2.086500    3.371300
C      7.871400    1.080300    4.027200
Br     4.639600   -0.320800    1.201900
N      6.673100   -0.613200    3.013000
N      7.638500   -0.224700    3.857800
H      5.563800    2.396900    1.944000
H      7.390000    3.129300    3.542100
H      8.665200    1.309600    4.724400
