22

O      1.225500   -0.000000   -0.000000
C      0.000000   -0.000000   -0.000000
N     -0.713000    0.000000    1.154400
H     -1.712600    0.063700    1.111800
C     -0.806800   -0.008800   -1.275400
C     -0.038900    0.050500    2.435000
H     -0.754300   -0.173300    3.220300
H      0.760300   -0.685200    2.452100
H      0.401600    1.029800    2.616000
H     -1.879900   -0.053500   -1.105800
H     -0.500400   -0.864800   -1.870900
H     -0.569100    0.889100   -1.840600
C      4.794500   -1.714100    4.362100
C      5.178500   -0.681600    5.217500
C      5.891000   -1.059200    6.339200
C      6.152300   -2.418700    6.502800
Br     3.817400   -1.304700    2.801900
N      5.063100   -3.003200    4.552300
N      5.754900   -3.361500    5.643100
H      4.926200    0.345500    5.001500
H      6.234300   -0.334400    7.063500
H      6.704000   -2.789900    7.355400
