22

O      1.225500   -0.000000   -0.000000
C      0.000000   -0.000000   -0.000000
N     -0.713000    0.000000    1.154400
H     -1.712600    0.063700    1.111800
C     -0.806800   -0.008800   -1.275400
C     -0.038900    0.050500    2.435000
H     -0.754300   -0.173300    3.220300
H      0.760300   -0.685200    2.452100
H      0.401600    1.029800    2.616000
H     -1.879900   -0.053500   -1.105800
H     -0.500400   -0.864800   -1.870900
H     -0.569100    0.889100   -1.840600
C     -0.950800    3.151700   -2.280600
C     -1.241000    4.397200   -2.837300
C     -1.769300    4.380600   -4.113700
C     -1.957500    3.135400   -4.711500
Br    -0.225900    3.064300   -0.541800
N     -1.144800    1.981700   -2.883700
N     -1.657700    1.974100   -4.122100
H     -1.058000    5.309600   -2.290300
H     -2.027800    5.292800   -4.632200
H     -2.366100    3.042700   -5.708100
