22

O      1.225500   -0.000000   -0.000000
C      0.000000   -0.000000   -0.000000
N     -0.713000    0.000000    1.154400
H     -1.712600    0.063700    1.111800
C     -0.806800   -0.008800   -1.275400
C     -0.038900    0.050500    2.435000
H     -0.754300   -0.173300    3.220300
H      0.760300   -0.685200    2.452100
H      0.401600    1.029800    2.616000
H     -1.879900   -0.053500   -1.105800
H     -0.500400   -0.864800   -1.870900
H     -0.569100    0.889100   -1.840600
C      3.784400   -5.582100    2.119200
C      4.234000   -5.812700    0.819200
C      5.153300   -6.833000    0.669600
C      5.535800   -7.522500    1.819200
Br     2.527700   -4.211000    2.431400
N      4.173600   -6.262900    3.194000
N      5.065800   -7.251300    3.040400
H      3.875300   -5.220700   -0.009000
H      5.562500   -7.090300   -0.296900
H      6.250600   -8.332800    1.781000
