22

O      1.225500   -0.000000   -0.000000
C      0.000000   -0.000000   -0.000000
N     -0.713000    0.000000    1.154400
H     -1.712600    0.063700    1.111800
C     -0.806800   -0.008800   -1.275400
C     -0.038900    0.050500    2.435000
H     -0.754300   -0.173300    3.220300
H      0.760300   -0.685200    2.452100
H      0.401600    1.029800    2.616000
H     -1.879900   -0.053500   -1.105800
H     -0.500400   -0.864800   -1.870900
H     -0.569100    0.889100   -1.840600
C      4.166300   -2.243300    5.192800
C      3.836300   -2.382200    6.540900
C      4.883200   -2.678400    7.392100
C      6.150500   -2.807700    6.826000
Br     2.809000   -1.838900    3.947500
N      5.390600   -2.374300    4.688900
N      6.401000   -2.661800    5.521400
H      2.819300   -2.262200    6.882100
H      4.731600   -2.805900    8.454500
H      7.018200   -3.038400    7.428400
