22

O      1.225500   -0.000000   -0.000000
C      0.000000   -0.000000   -0.000000
N     -0.713000    0.000000    1.154400
H     -1.712600    0.063700    1.111800
C     -0.806800   -0.008800   -1.275400
C     -0.038900    0.050500    2.435000
H     -0.754300   -0.173300    3.220300
H      0.760300   -0.685200    2.452100
H      0.401600    1.029800    2.616000
H     -1.879900   -0.053500   -1.105800
H     -0.500400   -0.864800   -1.870900
H     -0.569100    0.889100   -1.840600
C      5.647000    2.736400   -1.783000
C      6.405800    3.333200   -0.776300
C      7.592400    3.915200   -1.178200
C      7.909900    3.849100   -2.534000
Br     4.009200    1.913400   -1.339100
N      5.983700    2.693300   -3.069300
N      7.136700    3.260400   -3.451300
H      6.071700    3.331600    0.250200
H      8.251500    4.403200   -0.474400
H      8.821100    4.281800   -2.923200
