22

O      1.225500   -0.000000   -0.000000
C      0.000000   -0.000000   -0.000000
N     -0.713000    0.000000    1.154400
H     -1.712600    0.063700    1.111800
C     -0.806800   -0.008800   -1.275400
C     -0.038900    0.050500    2.435000
H     -0.754300   -0.173300    3.220300
H      0.760300   -0.685200    2.452100
H      0.401600    1.029800    2.616000
H     -1.879900   -0.053500   -1.105800
H     -0.500400   -0.864800   -1.870900
H     -0.569100    0.889100   -1.840600
C      5.262000   -5.546500   -0.417800
C      5.594100   -6.085100   -1.660800
C      6.176800   -7.337500   -1.640900
C      6.372700   -7.931600   -0.395100
Br     4.461400   -3.841000   -0.335100
N      5.465000   -6.145300    0.752800
N      6.030900   -7.360400    0.763700
H      5.400700   -5.542900   -2.573900
H      6.470700   -7.840600   -2.550900
H      6.822700   -8.910000   -0.299800
