22

O      1.225500   -0.000000   -0.000000
C      0.000000   -0.000000   -0.000000
N     -0.713000    0.000000    1.154400
H     -1.712600    0.063700    1.111800
C     -0.806800   -0.008800   -1.275400
C     -0.038900    0.050500    2.435000
H     -0.754300   -0.173300    3.220300
H      0.760300   -0.685200    2.452100
H      0.401600    1.029800    2.616000
H     -1.879900   -0.053500   -1.105800
H     -0.500400   -0.864800   -1.870900
H     -0.569100    0.889100   -1.840600
C      0.627700    3.963700   -5.054700
C      0.993400    5.062900   -4.277900
C      1.501200    6.147600   -4.966300
C      1.596600    6.037200   -6.352700
Br    -0.076700    2.431000   -4.211300
N      0.733800    3.895300   -6.379100
N      1.227500    4.952000   -7.039800
H      0.880100    5.050500   -3.204500
H      1.813300    7.047500   -4.455900
H      1.983900    6.844200   -6.958900
