22

O      1.224000    0.000000    0.000000
C      0.000000    0.000000    0.000000
N     -0.718000    0.000000    1.154000
H     -1.717000    0.061000    1.108000
C     -0.809000   -0.010000   -1.276000
C     -0.049000    0.046000    2.436000
H     -0.777000   -0.133000    3.221000
H      0.720000   -0.720000    2.476000
H      0.429000    1.010000    2.602000
H     -1.882000   -0.038000   -1.106000
H     -0.515000   -0.876000   -1.863000
H     -0.559000    0.879000   -1.850000
C      2.196900    3.156200   -2.630800
C      2.760000    4.306600   -2.078800
C      4.139500    4.376700   -2.104500
C      4.823600    3.303300   -2.673000
Br     0.321000    2.962500   -2.645200
N      2.884300    2.150400   -3.165600
N      4.222400    2.226000   -3.186700
H      2.141100    5.085900   -1.660600
H      4.671600    5.226600   -1.701800
H      5.903100    3.286600   -2.729000
