22

O      1.224000    0.000000    0.000000
C      0.000000    0.000000    0.000000
N     -0.718000    0.000000    1.154000
H     -1.717000    0.061000    1.108000
C     -0.809000   -0.010000   -1.276000
C     -0.049000    0.046000    2.436000
H     -0.777000   -0.133000    3.221000
H      0.720000   -0.720000    2.476000
H      0.429000    1.010000    2.602000
H     -1.882000   -0.038000   -1.106000
H     -0.515000   -0.876000   -1.863000
H     -0.559000    0.879000   -1.850000
C      1.080600    3.140900   -1.827900
C      1.105600    3.365000   -3.204300
C      2.275100    3.900100   -3.708500
C      3.302000    4.159900   -2.802300
Br    -0.470200    2.412700   -1.039500
N      2.083100    3.402300   -0.993200
N      3.214500    3.921400   -1.490300
H      0.253800    3.129000   -3.824100
H      2.394400    4.110700   -4.761700
H      4.246200    4.578300   -3.122300
