22

O      1.224000    0.000000    0.000000
C      0.000000    0.000000    0.000000
N     -0.718000    0.000000    1.154000
H     -1.717000    0.061000    1.108000
C     -0.809000   -0.010000   -1.276000
C     -0.049000    0.046000    2.436000
H     -0.777000   -0.133000    3.221000
H      0.720000   -0.720000    2.476000
H      0.429000    1.010000    2.602000
H     -1.882000   -0.038000   -1.106000
H     -0.515000   -0.876000   -1.863000
H     -0.559000    0.879000   -1.850000
C     -1.400200   -4.327700   -0.122300
C     -0.927900   -5.473600   -0.762100
C     -1.818500   -6.102800   -1.610400
C     -3.085700   -5.536700   -1.741000
Br    -0.262500   -3.394100    1.057000
N     -2.619300   -3.816600   -0.272600
N     -3.477500   -4.433000   -1.097400
H      0.075600   -5.833700   -0.593700
H     -1.549000   -6.997600   -2.153000
H     -3.835900   -5.972500   -2.386100
