22

O      1.224000    0.000000    0.000000
C      0.000000    0.000000    0.000000
N     -0.718000    0.000000    1.154000
H     -1.717000    0.061000    1.108000
C     -0.809000   -0.010000   -1.276000
C     -0.049000    0.046000    2.436000
H     -0.777000   -0.133000    3.221000
H      0.720000   -0.720000    2.476000
H      0.429000    1.010000    2.602000
H     -1.882000   -0.038000   -1.106000
H     -0.515000   -0.876000   -1.863000
H     -0.559000    0.879000   -1.850000
C      4.680200    1.778400   -0.992500
C      5.736800    1.522700   -1.866300
C      5.434900    1.580500   -3.213100
C      4.119800    1.885100   -3.561000
Br     4.987200    1.724300    0.867500
N      3.435300    2.066400   -1.363000
N      3.150400    2.120600   -2.671700
H      6.724800    1.294900   -1.496200
H      6.183900    1.397900   -3.970400
H      3.808300    1.948200   -4.594400
