22

O      1.224000    0.000000    0.000000
C      0.000000    0.000000    0.000000
N     -0.718000    0.000000    1.154000
H     -1.717000    0.061000    1.108000
C     -0.809000   -0.010000   -1.276000
C     -0.049000    0.046000    2.436000
H     -0.777000   -0.133000    3.221000
H      0.720000   -0.720000    2.476000
H      0.429000    1.010000    2.602000
H     -1.882000   -0.038000   -1.106000
H     -0.515000   -0.876000   -1.863000
H     -0.559000    0.879000   -1.850000
C      4.379000   -0.234800    2.936700
C      5.326300   -1.125300    3.441800
C      6.358300   -1.459400    2.586400
C      6.350600   -0.880200    1.318400
Br     2.929400    0.285800    4.025000
N      4.405400    0.298300    1.718000
N      5.410100   -0.030900    0.894100
H      5.243300   -1.520300    4.442900
H      7.142300   -2.141500    2.883000
H      7.124800   -1.093700    0.594600
