22

O      1.225500   -0.000000   -0.000000
C      0.000000   -0.000000   -0.000000
N     -0.713000    0.000000    1.154400
H     -1.712600    0.063700    1.111800
C     -0.806800   -0.008800   -1.275400
C     -0.038900    0.050500    2.435000
H     -0.754300   -0.173300    3.220300
H      0.760300   -0.685200    2.452100
H      0.401600    1.029800    2.616000
H     -1.879900   -0.053500   -1.105800
H     -0.500400   -0.864800   -1.870900
H     -0.569100    0.889100   -1.840600
C     -4.435500    2.798700   -1.619600
C     -5.029000    3.699600   -0.735600
C     -6.234500    4.239000   -1.140900
C     -6.732200    3.834100   -2.378500
Br    -2.787300    2.005400   -1.160600
N     -4.942200    2.436000   -2.795100
N     -6.112300    2.963800   -3.181100
H     -4.561400    3.949600    0.204600
H     -6.773900    4.946500   -0.527400
H     -7.669200    4.212900   -2.762500
