22

O      1.225500   -0.000000   -0.000000
C      0.000000   -0.000000   -0.000000
N     -0.713000    0.000000    1.154400
H     -1.712600    0.063700    1.111800
C     -0.806800   -0.008800   -1.275400
C     -0.038900    0.050500    2.435000
H     -0.754300   -0.173300    3.220300
H      0.760300   -0.685200    2.452100
H      0.401600    1.029800    2.616000
H     -1.879900   -0.053500   -1.105800
H     -0.500400   -0.864800   -1.870900
H     -0.569100    0.889100   -1.840600
C     -5.293900    0.029000   -0.008000
C     -5.975900   -0.179000   -1.206800
C     -7.354800   -0.142800   -1.131900
C     -7.921100    0.095300    0.119500
Br    -3.408200   -0.000800   -0.001900
N     -5.870600    0.253700    1.169700
N     -7.209000    0.287300    1.233900
H     -5.443200   -0.356300   -2.128700
H     -7.974100   -0.292200   -2.004800
H     -8.992700    0.137800    0.256400
