22

H     -1.712600    0.063700    1.111800
N     -0.713000    0.000000    1.154400
C      0.000000   -0.000000   -0.000000
O      1.225500   -0.000000   -0.000000
C     -0.038900    0.050500    2.435000
H     -0.754300   -0.173300    3.220300
H      0.760300   -0.685200    2.452100
H      0.401600    1.029800    2.616000
C     -0.806800   -0.008800   -1.275400
H     -1.879900   -0.053500   -1.105800
H     -0.500400   -0.864800   -1.870900
H     -0.569100    0.889100   -1.840600
C     -4.307400    0.495600    1.360900
C     -4.967700   -0.588200    1.939400
C     -6.305700   -0.398200    2.225900
C     -6.856600    0.843300    1.912000
Br    -2.477900    0.339100    0.930800
N     -4.868400    1.667800    1.075400
N     -6.167100    1.844200    1.356500
H     -4.449800   -1.512900    2.144400
H     -6.905500   -1.176800    2.675000
H     -7.896500    1.066100    2.106800
