22

O      1.224000    0.000000    0.000000
C      0.000000    0.000000    0.000000
N     -0.718000    0.000000    1.154000
H     -1.717000    0.061000    1.108000
C     -0.809000   -0.010000   -1.276000
C     -0.049000    0.046000    2.436000
H     -0.777000   -0.133000    3.221000
H      0.720000   -0.720000    2.476000
H      0.429000    1.010000    2.602000
H     -1.882000   -0.038000   -1.106000
H     -0.515000   -0.876000   -1.863000
H     -0.559000    0.879000   -1.850000
C      0.268200    2.402400    4.366300
C      0.443100    1.140200    4.933500
C      0.129800    1.031300    6.274500
C     -0.324800    2.180200    6.920100
Br     0.667700    2.657300    2.540900
N     -0.168900    3.477800    5.016300
N     -0.470800    3.363900    6.317300
H      0.802600    0.309000    4.346000
H      0.231100    0.096100    6.806300
H     -0.589300    2.172600    7.968400
