22

H      0.760300   -0.685200    2.452100
H      0.401600    1.029800    2.616000
C     -0.038900    0.050500    2.435000
H     -0.754300   -0.173300    3.220300
N     -0.713000    0.000000    1.154400
H     -1.712600    0.063700    1.111800
C      0.000000   -0.000000   -0.000000
O      1.225500   -0.000000   -0.000000
C     -0.806800   -0.008800   -1.275400
H     -1.879900   -0.053500   -1.105800
H     -0.500400   -0.864800   -1.870900
H     -0.569100    0.889100   -1.840600
C      0.024400    1.491200    4.093700
C     -0.156300    0.573500    5.128500
C     -0.535900    1.103000    6.346700
C     -0.698700    2.485500    6.420000
Br     0.542800    0.870600    2.390000
N     -0.140900    2.806800    4.202300
N     -0.509300    3.312700    5.387600
H     -0.004600   -0.483500    4.970300
H     -0.701200    0.475600    7.210800
H     -0.994100    2.972200    7.339100
