22

H     -0.754300   -0.173300    3.220300
H      0.760300   -0.685200    2.452100
C     -0.038900    0.050500    2.435000
H      0.401600    1.029800    2.616000
N     -0.713000    0.000000    1.154400
H     -1.712600    0.063700    1.111800
O      1.225500   -0.000000   -0.000000
C      0.000000   -0.000000   -0.000000
C     -0.806800   -0.008800   -1.275400
H     -1.879900   -0.053500   -1.105800
H     -0.500400   -0.864800   -1.870900
H     -0.569100    0.889100   -1.840600
C     -0.234200   -1.819600    5.002100
C     -0.414300   -3.187800    5.204900
C     -0.793700   -3.565400    6.478400
C     -0.956900   -2.553500    7.423300
Br     0.283900   -1.199600    3.298100
N     -0.399800   -0.881600    5.931000
N     -0.768000   -1.256200    7.164200
H     -0.262400   -3.895700    4.404300
H     -0.958600   -4.601600    6.737100
H     -1.252200   -2.771700    8.440200
