22

H     -1.712600    0.063700    1.111800
N     -0.713000    0.000000    1.154400
C      0.000000   -0.000000   -0.000000
O      1.225500   -0.000000   -0.000000
C     -0.038900    0.050500    2.435000
H     -0.754300   -0.173300    3.220300
H      0.760300   -0.685200    2.452100
H      0.401600    1.029800    2.616000
C     -0.806800   -0.008800   -1.275400
H     -1.879900   -0.053500   -1.105800
H     -0.500400   -0.864800   -1.870900
H     -0.569100    0.889100   -1.840600
C     -3.971500   -1.610600    0.927800
C     -4.613600   -2.418200   -0.010800
C     -5.917300   -2.768000    0.283700
C     -6.455200   -2.284700    1.475500
Br    -2.189100   -1.076700    0.620300
N     -4.519200   -1.168100    2.056600
N     -5.784500   -1.511900    2.335100
H     -4.108200   -2.741800   -0.908000
H     -6.500800   -3.390600   -0.379400
H     -7.468400   -2.516000    1.773400
