22

H     -1.879900   -0.053500   -1.105800
C     -0.806800   -0.008800   -1.275400
H     -0.569100    0.889100   -1.840600
H     -0.500400   -0.864800   -1.870900
C      0.000000   -0.000000   -0.000000
O      1.225500   -0.000000   -0.000000
N     -0.713000    0.000000    1.154400
H     -1.712600    0.063700    1.111800
C     -0.038900    0.050500    2.435000
H     -0.754300   -0.173300    3.220300
H      0.760300   -0.685200    2.452100
H      0.401600    1.029800    2.616000
C     -4.113200    0.477300   -1.316900
C     -4.773700    1.679500   -1.063900
C     -6.111400    1.718000   -1.406700
C     -6.661800    0.565100   -1.964700
Br    -2.284000    0.320900   -0.885200
N     -4.673600   -0.604100   -1.852100
N     -5.972000   -0.558700   -2.182000
H     -4.256200    2.519600   -0.626200
H     -6.711400    2.603100   -1.250700
H     -7.701400    0.519600   -2.258000
