22

H     -1.712600    0.063700    1.111800
H     -1.879900   -0.053500   -1.105800
C     -0.806800   -0.008800   -1.275400
N     -0.713000    0.000000    1.154400
H     -0.500400   -0.864800   -1.870900
H     -0.569100    0.889100   -1.840600
C      0.000000   -0.000000   -0.000000
O      1.225500   -0.000000   -0.000000
C     -0.038900    0.050500    2.435000
H      0.760300   -0.685200    2.452100
H      0.401600    1.029800    2.616000
H     -0.754300   -0.173300    3.220300
C     -4.293900    0.025600    0.013000
C     -4.976000    0.636600   -1.039000
C     -6.355000    0.615800   -0.958400
C     -6.921100   -0.006300    0.153300
Br    -2.408200   -0.000600   -0.001500
N     -4.870400   -0.559400    1.059600
N     -6.208900   -0.575300    1.130500
H     -4.443500    1.093600   -1.859300
H     -6.974400    1.062200   -1.723100
H     -7.992700   -0.062100    0.285500
