22

O      1.224000    0.000000    0.000000
C      0.000000    0.000000    0.000000
N     -0.718000    0.000000    1.154000
H     -1.717000    0.061000    1.108000
C     -0.809000   -0.010000   -1.276000
C     -0.049000    0.046000    2.436000
H     -0.777000   -0.133000    3.221000
H      0.720000   -0.720000    2.476000
H      0.429000    1.010000    2.602000
H     -1.882000   -0.038000   -1.106000
H     -0.515000   -0.876000   -1.863000
H     -0.559000    0.879000   -1.850000
C     -0.053700    2.503100    4.508000
C      0.646800    1.656500    5.367100
C      0.608700    1.989100    6.707400
C     -0.117500    3.124300    7.064000
Br    -0.064800    2.137100    2.658000
N     -0.737000    3.580200    4.886600
N     -0.769000    3.896100    6.188800
H      1.181300    0.797400    4.991100
H      1.119300    1.396800    7.453200
H     -0.192900    3.447200    8.093000
