22

H     -1.712600    0.063700    1.111800
H     -1.879900   -0.053500   -1.105800
C      0.000000   -0.000000   -0.000000
O      1.225500   -0.000000   -0.000000
N     -0.713000    0.000000    1.154400
C     -0.806800   -0.008800   -1.275400
H     -0.500400   -0.864800   -1.870900
H     -0.569100    0.889100   -1.840600
C     -0.038900    0.050500    2.435000
H      0.760300   -0.685200    2.452100
H      0.401600    1.029800    2.616000
H     -0.754300   -0.173300    3.220300
C     -3.693800   -0.027300   -0.017300
C     -4.376700   -0.638500    1.034100
C     -5.755600   -0.618200    0.952300
C     -6.320900    0.003800   -0.159800
Br    -1.808200   -0.000500   -0.001200
N     -4.269700    0.557600   -1.064400
N     -5.608100    0.573100   -1.136400
H     -3.844800   -1.095400    1.854800
H     -6.375600   -1.064900    1.716500
H     -7.392400    0.059200   -0.292900
