22

H     -1.712600    0.063700    1.111800
H     -1.879900   -0.053500   -1.105800
C      0.000000   -0.000000   -0.000000
O      1.225500   -0.000000   -0.000000
N     -0.713000    0.000000    1.154400
C     -0.806800   -0.008800   -1.275400
H     -0.500400   -0.864800   -1.870900
H     -0.569100    0.889100   -1.840600
C     -0.038900    0.050500    2.435000
H      0.760300   -0.685200    2.452100
H      0.401600    1.029800    2.616000
H     -0.754300   -0.173300    3.220300
C     -3.493800    0.018900   -0.025400
C     -4.175900   -0.910800   -0.810200
C     -5.554900   -0.834600   -0.776400
C     -6.121000    0.152300    0.029200
Br    -1.608200   -0.000500   -0.001200
N     -4.070500    0.948100    0.732300
N     -5.408900    1.015500    0.759600
H     -3.643400   -1.639300   -1.402500
H     -6.174200   -1.509900   -1.349200
H     -7.192600    0.273200    0.106500
