22

O      1.225000    0.000000    0.000000
C      0.000000    0.000000    0.000000
N     -0.713000    0.000000    1.155000
H     -1.713000    0.064000    1.113000
C     -0.808000   -0.008000   -1.275000
C     -0.038000    0.050000    2.436000
H     -0.754000   -0.174000    3.221000
H      0.761000   -0.686000    2.452000
H      0.402000    1.029000    2.617000
H     -1.881000   -0.053000   -1.104000
H     -0.502000   -0.864000   -1.870000
H     -0.570000    0.890000   -1.840000
C     -5.694700    0.010000    0.028900
C     -6.377500    1.154200   -0.383200
C     -7.756400    1.085900   -0.334000
C     -8.321800   -0.105700    0.117300
Br    -3.809000    0.000000    0.000000
N     -6.270500   -1.111400    0.454400
N     -7.608900   -1.169600    0.499200
H     -5.845500    2.031900   -0.717600
H     -8.376300    1.919400   -0.632100
H     -9.393300   -0.233800    0.183300
