22

H     -0.754300   -0.173300    3.220300
H      0.760300   -0.685200    2.452100
C     -0.038900    0.050500    2.435000
H      0.401600    1.029800    2.616000
N     -0.713000    0.000000    1.154400
H     -1.712600    0.063700    1.111800
O      1.225500   -0.000000   -0.000000
C      0.000000   -0.000000   -0.000000
C     -0.806800   -0.008800   -1.275400
H     -1.879900   -0.053500   -1.105800
H     -0.500400   -0.864800   -1.870900
H     -0.569100    0.889100   -1.840600
C     -1.305600   -1.829400    5.028500
C     -1.597400   -3.183400    5.192400
C     -2.201300   -3.531600    6.385100
C     -2.456100   -2.507200    7.295600
Br    -0.480400   -1.249600    3.434900
N     -1.564500   -0.878700    5.922400
N     -2.150600   -1.224700    7.077200
H     -1.359200   -3.903000    4.423900
H     -2.467500   -4.554900    6.608300
H     -2.925800   -2.702500    8.249600
