22

H     -1.879900   -0.053500   -1.105800
H     -1.712600    0.063700    1.111800
C     -0.806800   -0.008800   -1.275400
H     -0.569100    0.889100   -1.840600
H     -0.500400   -0.864800   -1.870900
C      0.000000   -0.000000   -0.000000
N     -0.713000    0.000000    1.154400
O      1.225500   -0.000000   -0.000000
C     -0.038900    0.050500    2.435000
H      0.401600    1.029800    2.616000
H      0.760300   -0.685200    2.452100
H     -0.754300   -0.173300    3.220300
C     -4.673800    0.164900   -0.458700
C     -5.354400    1.327000   -0.095600
C     -6.730000    1.284300   -0.215300
C     -7.294600    0.098100   -0.681500
Br    -2.792700    0.119500   -0.332100
N     -5.248900   -0.950500   -0.900400
N     -6.584100   -0.983900   -1.013700
H     -4.823300    2.198500    0.255800
H     -7.348000    2.133000    0.040700
H     -8.363600   -0.010500   -0.801400
