22

H     -0.569100    0.889100   -1.840600
H     -0.500400   -0.864800   -1.870900
C     -0.806800   -0.008800   -1.275400
H     -1.879900   -0.053500   -1.105800
C      0.000000   -0.000000   -0.000000
O      1.225500   -0.000000   -0.000000
N     -0.713000    0.000000    1.154400
H     -1.712600    0.063700    1.111800
C     -0.038900    0.050500    2.435000
H      0.401600    1.029800    2.616000
H      0.760300   -0.685200    2.452100
H     -0.754300   -0.173300    3.220300
C     -1.734200   -0.001600   -4.177300
C     -2.128600    1.214600   -4.734700
C     -2.937800    1.133500   -5.851500
C     -3.275700   -0.140600   -6.305000
Br    -0.628200   -0.001000   -2.649700
N     -2.077900   -1.200900   -4.639600
N     -2.863200   -1.271000   -5.723500
H     -1.812000    2.153700   -4.307100
H     -3.297000    2.018600   -6.356800
H     -3.904900   -0.283700   -7.172500
