22

H      0.401600    1.029800    2.616000
C     -0.038900    0.050500    2.435000
N     -0.713000    0.000000    1.154400
H     -1.712600    0.063700    1.111800
H     -0.754300   -0.173300    3.220300
H      0.760300   -0.685200    2.452100
C      0.000000   -0.000000   -0.000000
O      1.225500   -0.000000   -0.000000
C     -0.806800   -0.008800   -1.275400
H     -1.879900   -0.053500   -1.105800
H     -0.500400   -0.864800   -1.870900
H     -0.569100    0.889100   -1.840600
C     -2.090100    2.508400    2.987200
C     -2.532000    1.911400    4.167700
C     -3.436200    2.642800    4.913400
C     -3.812800    3.890100    4.417700
Br    -0.854100    1.592500    1.896300
N     -2.473300    3.703700    2.545900
N     -3.350900    4.407000    3.275200
H     -2.178800    0.936100    4.466400
H     -3.838300    2.268000    5.843700
H     -4.515800    4.519500    4.945400
