22

H     -1.712600    0.063700    1.111800
H     -1.879900   -0.053500   -1.105800
C      0.000000   -0.000000   -0.000000
O      1.225500   -0.000000   -0.000000
N     -0.713000    0.000000    1.154400
C     -0.806800   -0.008800   -1.275400
H     -0.569100    0.889100   -1.840600
H     -0.500400   -0.864800   -1.870900
C     -0.038900    0.050500    2.435000
H      0.760300   -0.685200    2.452100
H      0.401600    1.029800    2.616000
H     -0.754300   -0.173300    3.220300
C     -3.877000   -0.410200    0.070200
C     -4.556800   -0.676500   -1.118300
C     -5.932400   -0.758600   -1.022600
C     -6.498000   -0.569400    0.237400
Br    -1.995900   -0.278100    0.047700
N     -4.453000   -0.235100    1.256600
N     -5.788300   -0.316300    1.341100
H     -4.024900   -0.807900   -2.048400
H     -6.549800   -0.961100   -1.886100
H     -7.567100   -0.618800    0.390600
