22

O      1.225500   -0.000000   -0.000000
C      0.000000   -0.000000   -0.000000
N     -0.713000    0.000000    1.154400
H     -1.712600    0.063700    1.111800
C     -0.806800   -0.008800   -1.275400
C     -0.038900    0.050500    2.435000
H     -0.754300   -0.173300    3.220300
H      0.760300   -0.685200    2.452100
H      0.401600    1.029800    2.616000
H     -1.879900   -0.053500   -1.105800
H     -0.500400   -0.864800   -1.870900
H     -0.569100    0.889100   -1.840600
C      0.100800   -2.128400   -5.842900
C     -0.021100   -1.215300   -6.890200
C     -0.282400   -1.754500   -8.135000
C     -0.397000   -3.141300   -8.219700
Br     0.457500   -1.494600   -4.102900
N     -0.015300   -3.448300   -5.963100
N     -0.268900   -3.963700   -7.174200
H      0.085200   -0.154500   -6.721400
H     -0.394400   -1.131300   -9.010700
H     -0.600500   -3.635500   -9.159500
