22

H     -1.879900   -0.053500   -1.105800
C     -0.806800   -0.008800   -1.275400
H     -0.569100    0.889100   -1.840600
H     -0.500400   -0.864800   -1.870900
C      0.000000   -0.000000   -0.000000
O      1.225500   -0.000000   -0.000000
N     -0.713000    0.000000    1.154400
H     -1.712600    0.063700    1.111800
C     -0.038900    0.050500    2.435000
H      0.401600    1.029800    2.616000
H      0.760300   -0.685200    2.452100
H     -0.754300   -0.173300    3.220300
C     -5.002700   -0.925500   -0.535900
C     -5.675100   -0.417100   -1.647200
C     -7.037000   -0.645500   -1.686400
C     -7.597400   -1.353100   -0.624000
Br    -3.140500   -0.667600   -0.386500
N     -5.573400   -1.597400    0.460500
N     -6.895200   -1.814900    0.415000
H     -5.148200    0.120200   -2.421100
H     -7.647800   -0.292400   -2.504900
H     -8.655800   -1.570200   -0.584900
