22

H     -1.879900   -0.053500   -1.105800
C     -0.806800   -0.008800   -1.275400
H     -0.569100    0.889100   -1.840600
H     -0.500400   -0.864800   -1.870900
C      0.000000   -0.000000   -0.000000
O      1.225500   -0.000000   -0.000000
N     -0.713000    0.000000    1.154400
H     -1.712600    0.063700    1.111800
C     -0.038900    0.050500    2.435000
H      0.401600    1.029800    2.616000
H      0.760300   -0.685200    2.452100
H     -0.754300   -0.173300    3.220300
C     -5.072500    0.511300   -0.093100
C     -5.753300    0.777400    1.094800
C     -7.128900    0.859100    0.998000
C     -7.693300    0.669600   -0.262500
Br    -3.191300    0.379800   -0.069000
N     -5.647400    0.336000   -1.280000
N     -6.982600    0.416800   -1.365600
H     -5.222200    0.909000    2.025400
H     -7.747100    1.061300    1.860900
H     -8.762300    0.718700   -0.416600
