22

O      1.225500   -0.000000   -0.000000
C      0.000000   -0.000000   -0.000000
N     -0.713000    0.000000    1.154400
H     -1.712600    0.063700    1.111800
C     -0.806800   -0.008800   -1.275400
C     -0.038900    0.050500    2.435000
H     -0.754300   -0.173300    3.220300
H      0.760300   -0.685200    2.452100
H      0.401600    1.029800    2.616000
H     -1.879900   -0.053500   -1.105800
H     -0.500400   -0.864800   -1.870900
H     -0.569100    0.889100   -1.840600
C     -2.540000   -3.421000    4.076900
C     -2.934200   -4.710900    3.721700
C     -3.744000   -5.366800    4.628600
C     -4.082900   -4.682400    5.794800
Br    -1.433100   -2.439400    2.907300
N     -2.884600   -2.799600    5.201700
N     -3.670600   -3.442800    6.076400
H     -2.616700   -5.155400    2.790700
H     -4.103100   -6.369600    4.446400
H     -4.712600   -5.130500    6.550800
