22

O      1.225500   -0.000000   -0.000000
C      0.000000   -0.000000   -0.000000
N     -0.713000    0.000000    1.154400
H     -1.712600    0.063700    1.111800
C     -0.806800   -0.008800   -1.275400
C     -0.038900    0.050500    2.435000
H     -0.754300   -0.173300    3.220300
H      0.760300   -0.685200    2.452100
H      0.401600    1.029800    2.616000
H     -1.879900   -0.053500   -1.105800
H     -0.500400   -0.864800   -1.870900
H     -0.569100    0.889100   -1.840600
C     -2.986400   -0.002100   -4.976200
C     -3.428000    1.214100   -5.497200
C     -4.331300    1.133000   -6.539200
C     -4.707400   -0.141100   -6.961600
Br    -1.751600   -0.001500   -3.550800
N     -3.369100   -1.201400   -5.406800
N     -4.245900   -1.271500   -6.418300
H     -3.075300    2.153200   -5.098700
H     -4.733200    2.018100   -7.011300
H     -5.409800   -0.284200   -7.771000
