22

O      1.224000    0.000000    0.000000
C      0.000000    0.000000    0.000000
N     -0.718000    0.000000    1.154000
H     -1.717000    0.061000    1.108000
C     -0.809000   -0.010000   -1.276000
C     -0.049000    0.046000    2.436000
H     -0.777000   -0.133000    3.221000
H      0.720000   -0.720000    2.476000
H      0.429000    1.010000    2.602000
H     -1.882000   -0.038000   -1.106000
H     -0.515000   -0.876000   -1.863000
H     -0.559000    0.879000   -1.850000
C      3.631800    1.031300    1.872800
C      3.935800    1.612100    0.641700
C      2.912200    2.314100    0.035200
C      1.691500    2.371600    0.705900
Br     4.960400    0.050800    2.783900
N      2.451900    1.108100    2.482900
N      1.463900    1.791000    1.887900
H      4.916800    1.509800    0.203100
H      3.046900    2.800800   -0.920200
H      0.844400    2.902200    0.293900
