22

O      1.224000    0.000000    0.000000
C      0.000000    0.000000    0.000000
N     -0.718000    0.000000    1.154000
H     -1.717000    0.061000    1.108000
C     -0.809000   -0.010000   -1.276000
C     -0.049000    0.046000    2.436000
H     -0.777000   -0.133000    3.221000
H      0.720000   -0.720000    2.476000
H      0.429000    1.010000    2.602000
H     -1.882000   -0.038000   -1.106000
H     -0.515000   -0.876000   -1.863000
H     -0.559000    0.879000   -1.850000
C      3.282400    1.256900    4.759800
C      3.992900    0.716900    5.831800
C      4.616000    1.626900    6.663800
C      4.474400    2.978400    6.353000
Br     2.395100    0.099400    3.564200
N      3.169800    2.555800    4.495100
N      3.777300    3.432300    5.307100
H      4.043000   -0.350000    5.987700
H      5.190900    1.309400    7.521900
H      4.933000    3.748700    6.957500
