22

O      1.224000    0.000000    0.000000
C      0.000000    0.000000    0.000000
N     -0.718000    0.000000    1.154000
H     -1.717000    0.061000    1.108000
C     -0.809000   -0.010000   -1.276000
C     -0.049000    0.046000    2.436000
H     -0.777000   -0.133000    3.221000
H      0.720000   -0.720000    2.476000
H      0.429000    1.010000    2.602000
H     -1.882000   -0.038000   -1.106000
H     -0.515000   -0.876000   -1.863000
H     -0.559000    0.879000   -1.850000
C      1.744200   -3.386900    3.278000
C      0.508900   -2.977400    3.779600
C      0.273800   -3.258800    5.111500
C      1.282800   -3.916300    5.813600
Br     2.163800   -3.050300    1.470400
N      2.684100   -4.013600    3.980800
N      2.448400   -4.283000    5.272500
H     -0.209100   -2.472200    3.151500
H     -0.652600   -2.982700    5.594400
H      1.171500   -4.169900    6.858700
