22

O      1.224000    0.000000    0.000000
C      0.000000    0.000000    0.000000
N     -0.718000    0.000000    1.154000
H     -1.717000    0.061000    1.108000
C     -0.809000   -0.010000   -1.276000
C     -0.049000    0.046000    2.436000
H     -0.777000   -0.133000    3.221000
H      0.720000   -0.720000    2.476000
H      0.429000    1.010000    2.602000
H     -1.882000   -0.038000   -1.106000
H     -0.515000   -0.876000   -1.863000
H     -0.559000    0.879000   -1.850000
C      4.886300    2.189100    0.470900
C      5.290900    1.235100   -0.462800
C      6.452200    1.520600   -1.154400
C      7.096700    2.719700   -0.854000
Br     3.313200    1.894700    1.468500
N      5.529500    3.324400    0.730400
N      6.655500    3.594100    0.055100
H      4.719700    0.333400   -0.623200
H      6.849300    0.845500   -1.898900
H      8.010000    3.011400   -1.353800
