22

O      1.224000    0.000000    0.000000
C      0.000000    0.000000    0.000000
N     -0.718000    0.000000    1.154000
H     -1.717000    0.061000    1.108000
C     -0.809000   -0.010000   -1.276000
C     -0.049000    0.046000    2.436000
H     -0.777000   -0.133000    3.221000
H      0.720000   -0.720000    2.476000
H      0.429000    1.010000    2.602000
H     -1.882000   -0.038000   -1.106000
H     -0.515000   -0.876000   -1.863000
H     -0.559000    0.879000   -1.850000
C      3.060200    2.771200   -3.694100
C      3.264800    2.904300   -5.067400
C      3.204200    4.191300   -5.565700
C      2.947600    5.217100   -4.657300
Br     3.122500    1.055400   -2.913900
N      2.817200    3.776500   -2.857200
N      2.760000    5.022300   -3.348500
H      3.457800    2.043400   -5.689300
H      3.349100    4.400100   -6.616000
H      2.885500    6.249400   -4.972700
