22

O      1.224000    0.000000    0.000000
C      0.000000    0.000000    0.000000
N     -0.718000    0.000000    1.154000
H     -1.717000    0.061000    1.108000
C     -0.809000   -0.010000   -1.276000
C     -0.049000    0.046000    2.436000
H     -0.777000   -0.133000    3.221000
H      0.720000   -0.720000    2.476000
H      0.429000    1.010000    2.602000
H     -1.882000   -0.038000   -1.106000
H     -0.515000   -0.876000   -1.863000
H     -0.559000    0.879000   -1.850000
C      2.340200    3.714700   -2.935000
C      1.222800    4.323800   -2.364200
C      1.359400    5.661500   -2.047200
C      2.585900    6.262500   -2.326000
Br     2.257500    1.890100   -3.404800
N      3.496500    4.322800   -3.186500
N      3.621000    5.620800   -2.876000
H      0.313800    3.769200   -2.187500
H      0.551500    6.223800   -1.601200
H      2.767500    7.305400   -2.106000
