22

O      1.224000    0.000000    0.000000
C      0.000000    0.000000    0.000000
N     -0.718000    0.000000    1.154000
H     -1.717000    0.061000    1.108000
C     -0.809000   -0.010000   -1.276000
C     -0.049000    0.046000    2.436000
H     -0.777000   -0.133000    3.221000
H      0.720000   -0.720000    2.476000
H      0.429000    1.010000    2.602000
H     -1.882000   -0.038000   -1.106000
H     -0.515000   -0.876000   -1.863000
H     -0.559000    0.879000   -1.850000
C      4.750800    4.461500   -2.807300
C      4.483200    5.628400   -3.522900
C      5.417200    6.639100   -3.402400
C      6.521400    6.395200   -2.587200
Br     3.537600    3.020900   -2.904100
N      5.818300    4.265400   -2.037800
N      6.719900    5.250900   -1.926100
H      3.595100    5.720100   -4.129600
H      5.301500    7.582400   -3.916800
H      7.293800    7.138200   -2.444100
