22

O      1.224000    0.000000    0.000000
C      0.000000    0.000000    0.000000
N     -0.718000    0.000000    1.154000
H     -1.717000    0.061000    1.108000
C     -0.809000   -0.010000   -1.276000
C     -0.049000    0.046000    2.436000
H     -0.777000   -0.133000    3.221000
H      0.720000   -0.720000    2.476000
H      0.429000    1.010000    2.602000
H     -1.882000   -0.038000   -1.106000
H     -0.515000   -0.876000   -1.863000
H     -0.559000    0.879000   -1.850000
C      3.192400   -0.341600   -1.533400
C      3.253500    0.121400   -0.219100
C      3.161000    1.490000   -0.055300
C      3.017400    2.263300   -1.206300
Br     3.309500   -2.194300   -1.865500
N      3.054500    0.429300   -2.608900
N      2.965400    1.756200   -2.441600
H      3.366500   -0.561800    0.608900
H      3.197900    1.947700    0.922900
H      2.938700    3.340500   -1.157600
