22

O      1.224000    0.000000    0.000000
C      0.000000    0.000000    0.000000
N     -0.718000    0.000000    1.154000
H     -1.717000    0.061000    1.108000
C     -0.809000   -0.010000   -1.276000
C     -0.049000    0.046000    2.436000
H     -0.777000   -0.133000    3.221000
H      0.720000   -0.720000    2.476000
H      0.429000    1.010000    2.602000
H     -1.882000   -0.038000   -1.106000
H     -0.515000   -0.876000   -1.863000
H     -0.559000    0.879000   -1.850000
C      1.348400   -4.093700   -4.353800
C      1.516400   -5.196300   -3.516200
C      2.332800   -6.201700   -3.996700
C      2.900900   -6.016800   -5.256200
Br     0.252700   -2.665700   -3.791000
N      1.908500   -3.952800   -5.552300
N      2.699400   -4.932900   -6.011500
H      1.030700   -5.245300   -2.553400
H      2.526600   -7.097300   -3.423800
H      3.550400   -6.759600   -5.698200
