22

O      1.224000    0.000000    0.000000
C      0.000000    0.000000    0.000000
N     -0.718000    0.000000    1.154000
H     -1.717000    0.061000    1.108000
C     -0.809000   -0.010000   -1.276000
C     -0.049000    0.046000    2.436000
H     -0.777000   -0.133000    3.221000
H      0.720000   -0.720000    2.476000
H      0.429000    1.010000    2.602000
H     -1.882000   -0.038000   -1.106000
H     -0.515000   -0.876000   -1.863000
H     -0.559000    0.879000   -1.850000
C      5.172100    2.915700    1.457200
C      5.093400    4.042100    0.638400
C      6.042600    4.130100   -0.361500
C      6.973800    3.096600   -0.451800
Br     3.922300    2.700400    2.853000
N      6.077600    1.948000    1.339900
N      6.995100    2.040800    0.367200
H      4.330700    4.790600    0.790200
H      6.066800    4.963900   -1.048500
H      7.746300    3.095900   -1.208100
