22

O      1.224000    0.000000    0.000000
C      0.000000    0.000000    0.000000
N     -0.718000    0.000000    1.154000
H     -1.717000    0.061000    1.108000
C     -0.809000   -0.010000   -1.276000
C     -0.049000    0.046000    2.436000
H     -0.777000   -0.133000    3.221000
H      0.720000   -0.720000    2.476000
H      0.429000    1.010000    2.602000
H     -1.882000   -0.038000   -1.106000
H     -0.515000   -0.876000   -1.863000
H     -0.559000    0.879000   -1.850000
C      5.709400    2.382400   -2.346900
C      6.788300    1.559400   -2.024500
C      8.033600    2.016100   -2.410700
C      8.087600    3.239700   -3.076400
Br     3.965900    1.849900   -1.863900
N      5.800700    3.546400   -2.984700
N      7.012500    3.982600   -3.356100
H      6.641900    0.624900   -1.504300
H      8.932500    1.451800   -2.207600
H      9.025800    3.661400   -3.409300
