22

O      1.224000    0.000000    0.000000
C      0.000000    0.000000    0.000000
N     -0.718000    0.000000    1.154000
H     -1.717000    0.061000    1.108000
C     -0.809000   -0.010000   -1.276000
C     -0.049000    0.046000    2.436000
H     -0.777000   -0.133000    3.221000
H      0.720000   -0.720000    2.476000
H      0.429000    1.010000    2.602000
H     -1.882000   -0.038000   -1.106000
H     -0.515000   -0.876000   -1.863000
H     -0.559000    0.879000   -1.850000
C      2.387100    3.519700   -2.846700
C      1.520700    4.554000   -2.493100
C      0.343800    4.629300   -3.212500
C      0.141200    3.675300   -4.208500
Br     4.021500    3.329300   -1.925200
N      2.158500    2.626200   -3.805600
N      1.014200    2.706000   -4.499000
H      1.769900    5.245500   -1.702600
H     -0.393400    5.394500   -3.015200
H     -0.755300    3.670200   -4.812800
