22

O      1.224000    0.000000    0.000000
C      0.000000    0.000000    0.000000
N     -0.718000    0.000000    1.154000
H     -1.717000    0.061000    1.108000
C     -0.809000   -0.010000   -1.276000
C     -0.049000    0.046000    2.436000
H     -0.777000   -0.133000    3.221000
H      0.720000   -0.720000    2.476000
H      0.429000    1.010000    2.602000
H     -1.882000   -0.038000   -1.106000
H     -0.515000   -0.876000   -1.863000
H     -0.559000    0.879000   -1.850000
C      2.938100    3.909900   -0.280400
C      3.342600    4.594600   -1.426200
C      3.217700    5.969700   -1.384500
C      2.705800    6.529900   -0.215100
Br     3.068000    2.029000   -0.235100
N      2.453300    4.480800    0.819200
N      2.335200    5.815600    0.851800
H      3.727900    4.066700   -2.285400
H      3.503700    6.590700   -2.221400
H      2.579100    7.598300   -0.108300
