22

O      1.224000    0.000000    0.000000
C      0.000000    0.000000    0.000000
N     -0.718000    0.000000    1.154000
H     -1.717000    0.061000    1.108000
C     -0.809000   -0.010000   -1.276000
C     -0.049000    0.046000    2.436000
H     -0.777000   -0.133000    3.221000
H      0.720000   -0.720000    2.476000
H      0.429000    1.010000    2.602000
H     -1.882000   -0.038000   -1.106000
H     -0.515000   -0.876000   -1.863000
H     -0.559000    0.879000   -1.850000
C      4.212300    1.109900    2.323600
C      3.347600    1.785200    1.462400
C      2.424900    2.619200    2.063800
C      2.449500    2.702100    3.455100
Br     5.509800   -0.053600    1.603000
N      4.205300    1.214900    3.649900
N      3.306900    2.026200    4.225700
H      3.408800    1.653000    0.392900
H      1.711000    3.186600    1.484000
H      1.758500    3.333500    3.996200
