22

O      1.224000    0.000000    0.000000
C      0.000000    0.000000    0.000000
N     -0.718000    0.000000    1.154000
H     -1.717000    0.061000    1.108000
C     -0.809000   -0.010000   -1.276000
C     -0.049000    0.046000    2.436000
H     -0.777000   -0.133000    3.221000
H      0.720000   -0.720000    2.476000
H      0.429000    1.010000    2.602000
H     -1.882000   -0.038000   -1.106000
H     -0.515000   -0.876000   -1.863000
H     -0.559000    0.879000   -1.850000
C      0.467700   -4.577300   -2.283900
C      1.779900   -4.978700   -2.033700
C      1.950900   -6.305500   -1.689200
C      0.808600   -7.102100   -1.626500
Br     0.126100   -2.785300   -2.762100
N     -0.599500   -5.368600   -2.213800
N     -0.425100   -6.654800   -1.878800
H      2.600900   -4.282000   -2.109200
H      2.928200   -6.714400   -1.475900
H      0.863300   -8.149400   -1.363800
