22

O      1.224000    0.000000    0.000000
C      0.000000    0.000000    0.000000
N     -0.718000    0.000000    1.154000
H     -1.717000    0.061000    1.108000
C     -0.809000   -0.010000   -1.276000
C     -0.049000    0.046000    2.436000
H     -0.777000   -0.133000    3.221000
H      0.720000   -0.720000    2.476000
H      0.429000    1.010000    2.602000
H     -1.882000   -0.038000   -1.106000
H     -0.515000   -0.876000   -1.863000
H     -0.559000    0.879000   -1.850000
C      3.965000   -0.977600   -1.077400
C      4.714100   -0.304000   -0.112800
C      4.673500    1.075700   -0.170500
C      3.897000    1.650900   -1.175300
Br     3.953000   -2.863400   -1.085600
N      3.234400   -0.392400   -2.022900
N      3.200200    0.946700   -2.072200
H      5.285700   -0.843200    0.627200
H      5.219500    1.688900    0.532000
H      3.816400    2.723600   -1.283500
