22

O      1.224000    0.000000    0.000000
C      0.000000    0.000000    0.000000
N     -0.718000    0.000000    1.154000
H     -1.717000    0.061000    1.108000
C     -0.809000   -0.010000   -1.276000
C     -0.049000    0.046000    2.436000
H     -0.777000   -0.133000    3.221000
H      0.720000   -0.720000    2.476000
H      0.429000    1.010000    2.602000
H     -1.882000   -0.038000   -1.106000
H     -0.515000   -0.876000   -1.863000
H     -0.559000    0.879000   -1.850000
C      1.334400    1.840800   -4.287800
C      0.591200    3.019300   -4.222400
C      1.243400    4.168500   -4.625600
C      2.563900    4.037700   -5.052600
Br     0.536000    0.215900   -3.759800
N      2.595800    1.755400   -4.702000
N      3.221600    2.875000   -5.091500
H     -0.430900    3.016400   -3.875400
H      0.754600    5.132100   -4.612400
H      3.138700    4.891800   -5.382800
