22

O      1.224000    0.000000    0.000000
C      0.000000    0.000000    0.000000
N     -0.718000    0.000000    1.154000
H     -1.717000    0.061000    1.108000
C     -0.809000   -0.010000   -1.276000
C     -0.049000    0.046000    2.436000
H     -0.777000   -0.133000    3.221000
H      0.720000   -0.720000    2.476000
H      0.429000    1.010000    2.602000
H     -1.882000   -0.038000   -1.106000
H     -0.515000   -0.876000   -1.863000
H     -0.559000    0.879000   -1.850000
C      2.774100    0.157500   -3.947900
C      2.034900   -0.516900   -4.919600
C      2.147900   -1.893800   -4.917600
C      2.979600   -2.465600   -3.956100
Br     2.689400    2.039700   -3.865300
N      3.559000   -0.424300   -3.044800
N      3.663200   -1.760700   -3.049500
H      1.416700    0.019600   -5.623200
H      1.615400   -2.507400   -5.630200
H      3.118100   -3.535900   -3.892600
