22

O      1.224000    0.000000    0.000000
C      0.000000    0.000000    0.000000
N     -0.718000    0.000000    1.154000
H     -1.717000    0.061000    1.108000
C     -0.809000   -0.010000   -1.276000
C     -0.049000    0.046000    2.436000
H     -0.777000   -0.133000    3.221000
H      0.720000   -0.720000    2.476000
H      0.429000    1.010000    2.602000
H     -1.882000   -0.038000   -1.106000
H     -0.515000   -0.876000   -1.863000
H     -0.559000    0.879000   -1.850000
C      0.611300    2.273100   -3.386300
C      1.033300    2.786700   -2.160100
C      1.582100    4.054000   -2.192100
C      1.658700    4.686400   -3.432100
Br    -0.152400    0.550000   -3.451500
N      0.701100    2.908300   -4.551900
N      1.234800    4.137600   -4.574500
H      0.930100    2.215300   -1.250100
H      1.939000    4.540200   -1.295400
H      2.075600    5.678500   -3.536100
