22

O      1.224000    0.000000    0.000000
C      0.000000    0.000000    0.000000
N     -0.718000    0.000000    1.154000
H     -1.717000    0.061000    1.108000
C     -0.809000   -0.010000   -1.276000
C     -0.049000    0.046000    2.436000
H     -0.777000   -0.133000    3.221000
H      0.720000   -0.720000    2.476000
H      0.429000    1.010000    2.602000
H     -1.882000   -0.038000   -1.106000
H     -0.515000   -0.876000   -1.863000
H     -0.559000    0.879000   -1.850000
C      3.302500    0.887900    1.062100
C      4.008000    0.062500    0.186600
C      3.990400   -1.287000    0.481400
C      3.277600   -1.685200    1.611400
Br     3.263900    2.747100    0.748500
N      2.632500    0.469900    2.132900
N      2.620300   -0.841000    2.412100
H      4.531000    0.469700   -0.665400
H      4.506400   -2.008900   -0.135300
H      3.218400   -2.723900    1.905600
