22

O      1.224000    0.000000    0.000000
C      0.000000    0.000000    0.000000
N     -0.718000    0.000000    1.154000
H     -1.717000    0.061000    1.108000
C     -0.809000   -0.010000   -1.276000
C     -0.049000    0.046000    2.436000
H     -0.777000   -0.133000    3.221000
H      0.720000   -0.720000    2.476000
H      0.429000    1.010000    2.602000
H     -1.882000   -0.038000   -1.106000
H     -0.515000   -0.876000   -1.863000
H     -0.559000    0.879000   -1.850000
C      4.661600    1.222000   -0.864600
C      4.598000    2.186400    0.141000
C      4.506300    1.707100    1.433400
C      4.486700    0.323400    1.602200
Br     4.788600    1.772000   -2.664000
N      4.640100   -0.093100   -0.664000
N      4.551000   -0.550200    0.593000
H      4.620300    3.239800   -0.093400
H      4.451800    2.373100    2.282700
H      4.416600   -0.125600    2.583200
