22

O      1.224000    0.000000    0.000000
C      0.000000    0.000000    0.000000
N     -0.718000    0.000000    1.154000
H     -1.717000    0.061000    1.108000
C     -0.809000   -0.010000   -1.276000
C     -0.049000    0.046000    2.436000
H     -0.777000   -0.133000    3.221000
H      0.720000   -0.720000    2.476000
H      0.429000    1.010000    2.602000
H     -1.882000   -0.038000   -1.106000
H     -0.515000   -0.876000   -1.863000
H     -0.559000    0.879000   -1.850000
C      3.907900    2.139700    1.128700
C      4.837100    2.284800    0.098800
C      4.928600    3.544900   -0.459900
C      4.093000    4.534700    0.055200
Br     3.705200    0.458500    1.958800
N      3.126000    3.110400    1.594300
N      3.220800    4.330300    1.046900
H      5.440600    1.452500   -0.230100
H      5.618100    3.760100   -1.263600
H      4.107700    5.544500   -0.330900
