22

O      1.224000    0.000000    0.000000
C      0.000000    0.000000    0.000000
N     -0.718000    0.000000    1.154000
H     -1.717000    0.061000    1.108000
C     -0.809000   -0.010000   -1.276000
C     -0.049000    0.046000    2.436000
H     -0.777000   -0.133000    3.221000
H      0.720000   -0.720000    2.476000
H      0.429000    1.010000    2.602000
H     -1.882000   -0.038000   -1.106000
H     -0.515000   -0.876000   -1.863000
H     -0.559000    0.879000   -1.850000
C      5.907000   -1.642200    0.311000
C      7.280200   -1.403800    0.256200
C      8.093100   -2.498700    0.477100
C      7.467700   -3.718700    0.729900
Br     4.710100   -0.213500    0.023300
N      5.346100   -2.823600    0.555600
N      6.141800   -3.881100    0.768900
H      7.667900   -0.417300    0.052300
H      9.170600   -2.418300    0.455900
H      8.037600   -4.619200    0.912000
