22

O      1.224000    0.000000    0.000000
C      0.000000    0.000000    0.000000
N     -0.718000    0.000000    1.154000
H     -1.717000    0.061000    1.108000
C     -0.809000   -0.010000   -1.276000
C     -0.049000    0.046000    2.436000
H     -0.777000   -0.133000    3.221000
H      0.720000   -0.720000    2.476000
H      0.429000    1.010000    2.602000
H     -1.882000   -0.038000   -1.106000
H     -0.515000   -0.876000   -1.863000
H     -0.559000    0.879000   -1.850000
C      4.805600    2.348600   -1.300300
C      4.510800    3.699200   -1.115100
C      3.791100    4.305200   -2.126700
C      3.435100    3.515900   -3.219200
Br     5.784400    1.427800    0.022800
N      4.447800    1.627100   -2.359300
N      3.749700    2.222400   -3.336500
H      4.833000    4.224700   -0.229000
H      3.512700    5.348200   -2.078100
H      2.871900    3.919800   -4.049000
