22

O      1.224000    0.000000    0.000000
C      0.000000    0.000000    0.000000
N     -0.718000    0.000000    1.154000
H     -1.717000    0.061000    1.108000
C     -0.809000   -0.010000   -1.276000
C     -0.049000    0.046000    2.436000
H     -0.777000   -0.133000    3.221000
H      0.720000   -0.720000    2.476000
H      0.429000    1.010000    2.602000
H     -1.882000   -0.038000   -1.106000
H     -0.515000   -0.876000   -1.863000
H     -0.559000    0.879000   -1.850000
C      2.985100   -4.465300    1.240900
C      2.382700   -5.079200    2.338900
C      3.240700   -5.556100    3.310900
C      4.607200   -5.378500    3.100400
Br     1.902000   -3.780000   -0.142500
N      4.296500   -4.314100    1.074800
N      5.122300   -4.779600    2.022500
H      1.309200   -5.168200    2.409500
H      2.872800   -6.047600    4.200300
H      5.339400   -5.725100    3.816500
