22

O      1.224000    0.000000    0.000000
C      0.000000    0.000000    0.000000
N     -0.718000    0.000000    1.154000
H     -1.717000    0.061000    1.108000
C     -0.809000   -0.010000   -1.276000
C     -0.049000    0.046000    2.436000
H     -0.777000   -0.133000    3.221000
H      0.720000   -0.720000    2.476000
H      0.429000    1.010000    2.602000
H     -1.882000   -0.038000   -1.106000
H     -0.515000   -0.876000   -1.863000
H     -0.559000    0.879000   -1.850000
C      1.976400    3.494400    2.775500
C      1.127000    2.446600    3.130600
C      1.282100    1.949800    4.410300
C      2.260600    2.538100    5.210200
Br     1.845500    4.244100    1.050000
N      2.900400    4.030700    3.568400
N      3.044600    3.543000    4.808600
H      0.397800    2.058800    2.435600
H      0.672500    1.138300    4.781200
H      2.440200    2.203100    6.222300
