22

O      1.224000    0.000000    0.000000
C      0.000000    0.000000    0.000000
N     -0.718000    0.000000    1.154000
H     -1.717000    0.061000    1.108000
C     -0.809000   -0.010000   -1.276000
C     -0.049000    0.046000    2.436000
H     -0.777000   -0.133000    3.221000
H      0.720000   -0.720000    2.476000
H      0.429000    1.010000    2.602000
H     -1.882000   -0.038000   -1.106000
H     -0.515000   -0.876000   -1.863000
H     -0.559000    0.879000   -1.850000
C     -1.584200   -4.267800    3.191900
C     -1.461700   -4.958800    1.986500
C     -1.569600   -6.333800    2.064300
C     -1.787500   -6.887700    3.324900
Br    -1.452100   -2.386500    3.194700
N     -1.792400   -4.832700    4.378300
N     -1.895900   -6.167500    4.445300
H     -1.293000   -4.435500    1.057600
H     -1.489000   -6.959400    1.186800
H     -1.882600   -7.955500    3.464600
