22

O      1.224000    0.000000    0.000000
C      0.000000    0.000000    0.000000
N     -0.718000    0.000000    1.154000
H     -1.717000    0.061000    1.108000
C     -0.809000   -0.010000   -1.276000
C     -0.049000    0.046000    2.436000
H     -0.777000   -0.133000    3.221000
H      0.720000   -0.720000    2.476000
H      0.429000    1.010000    2.602000
H     -1.882000   -0.038000   -1.106000
H     -0.515000   -0.876000   -1.863000
H     -0.559000    0.879000   -1.850000
C      4.052300   -0.530400   -3.173400
C      5.431400   -0.494200   -2.967500
C      6.182400    0.039700   -3.996800
C      5.495500    0.484100   -5.125500
Br     2.936900   -1.240500   -1.828700
N      3.431700   -0.095700   -4.267000
N      4.167600    0.421000   -5.261100
H      5.869400   -0.865100   -2.053400
H      7.258800    0.112400   -3.934600
H      6.015000    0.913500   -5.970900
