22

O      1.224000    0.000000    0.000000
C      0.000000    0.000000    0.000000
N     -0.718000    0.000000    1.154000
H     -1.717000    0.061000    1.108000
C     -0.809000   -0.010000   -1.276000
C     -0.049000    0.046000    2.436000
H     -0.777000   -0.133000    3.221000
H      0.720000   -0.720000    2.476000
H      0.429000    1.010000    2.602000
H     -1.882000   -0.038000   -1.106000
H     -0.515000   -0.876000   -1.863000
H     -0.559000    0.879000   -1.850000
C      0.696300   -4.706800   -2.459500
C      0.801600   -5.187800   -3.764400
C      0.597800   -6.544400   -3.926900
C      0.310500   -7.289100   -2.784000
Br     0.957000   -2.868300   -2.129800
N      0.419900   -5.450400   -1.391400
N      0.223400   -6.765900   -1.557500
H      1.029300   -4.526500   -4.586600
H      0.657400   -7.014400   -4.898200
H      0.138900   -8.355500   -2.832300
