22

O      1.224000    0.000000    0.000000
C      0.000000    0.000000    0.000000
N     -0.718000    0.000000    1.154000
H     -1.717000    0.061000    1.108000
C     -0.809000   -0.010000   -1.276000
C     -0.049000    0.046000    2.436000
H     -0.777000   -0.133000    3.221000
H      0.720000   -0.720000    2.476000
H      0.429000    1.010000    2.602000
H     -1.882000   -0.038000   -1.106000
H     -0.515000   -0.876000   -1.863000
H     -0.559000    0.879000   -1.850000
C      5.555400    2.310600    0.677200
C      5.947300    2.602400    1.983700
C      5.937300    3.938800    2.333600
C      5.541200    4.852200    1.357800
Br     5.534300    0.515600    0.099300
N      5.183100    3.212000   -0.227800
N      5.176100    4.506600    0.119600
H      6.237900    1.819500    2.667500
H      6.223900    4.268200    3.322100
H      5.508200    5.914200    1.557500
