22

O      1.224000    0.000000    0.000000
C      0.000000    0.000000    0.000000
N     -0.718000    0.000000    1.154000
H     -1.717000    0.061000    1.108000
C     -0.809000   -0.010000   -1.276000
C     -0.049000    0.046000    2.436000
H     -0.777000   -0.133000    3.221000
H      0.720000   -0.720000    2.476000
H      0.429000    1.010000    2.602000
H     -1.882000   -0.038000   -1.106000
H     -0.515000   -0.876000   -1.863000
H     -0.559000    0.879000   -1.850000
C      4.144800    2.453700    2.956100
C      5.426600    1.951800    2.731200
C      6.436400    2.510900    3.490200
C      6.078300    3.509200    4.394800
Br     2.695200    1.757500    1.970800
N      3.841400    3.409500    3.830400
N      4.826900    3.946800    4.563000
H      5.601900    1.173400    2.004200
H      7.463800    2.191000    3.390700
H      6.813200    3.993300    5.022900
