22

O      1.224000    0.000000    0.000000
C      0.000000    0.000000    0.000000
N     -0.718000    0.000000    1.154000
H     -1.717000    0.061000    1.108000
C     -0.809000   -0.010000   -1.276000
C     -0.049000    0.046000    2.436000
H     -0.777000   -0.133000    3.221000
H      0.720000   -0.720000    2.476000
H      0.429000    1.010000    2.602000
H     -1.882000   -0.038000   -1.106000
H     -0.515000   -0.876000   -1.863000
H     -0.559000    0.879000   -1.850000
C      4.396100    0.962900   -0.169800
C      4.466200    1.523500   -1.445100
C      4.607300    2.896800   -1.494700
C      4.665100    3.577900   -0.279700
Br     4.203000   -0.904700    0.007800
N      4.454900    1.647200    0.969600
N      4.592000    2.979400    0.912900
H      4.411800    0.907400   -2.329700
H      4.670900    3.426700   -2.434400
H      4.774800    4.652700   -0.238600
