22

O      1.224000    0.000000    0.000000
C      0.000000    0.000000    0.000000
N     -0.718000    0.000000    1.154000
H     -1.717000    0.061000    1.108000
C     -0.809000   -0.010000   -1.276000
C     -0.049000    0.046000    2.436000
H     -0.777000   -0.133000    3.221000
H      0.720000   -0.720000    2.476000
H      0.429000    1.010000    2.602000
H     -1.882000   -0.038000   -1.106000
H     -0.515000   -0.876000   -1.863000
H     -0.559000    0.879000   -1.850000
C      3.268700   -1.072200   -3.857100
C      4.369900   -0.220200   -3.774900
C      5.588400   -0.827900   -3.541800
C      5.596300   -2.216000   -3.413500
Br     1.558700   -0.342200   -4.172900
N      3.315700   -2.395600   -3.729000
N      4.501800   -2.977700   -3.503000
H      4.259600    0.847500   -3.888800
H      6.501400   -0.255500   -3.461400
H      6.511400   -2.761800   -3.230300
