22

O      1.224000    0.000000    0.000000
C      0.000000    0.000000    0.000000
N     -0.718000    0.000000    1.154000
H     -1.717000    0.061000    1.108000
C     -0.809000   -0.010000   -1.276000
C     -0.049000    0.046000    2.436000
H     -0.777000   -0.133000    3.221000
H      0.720000   -0.720000    2.476000
H      0.429000    1.010000    2.602000
H     -1.882000   -0.038000   -1.106000
H     -0.515000   -0.876000   -1.863000
H     -0.559000    0.879000   -1.850000
C      2.984400    2.583500    0.953800
C      2.726700    2.479400    2.320600
C      3.835800    2.409000    3.141200
C      5.087600    2.448500    2.528900
Br     1.538500    2.685900   -0.252700
N      4.196100    2.618400    0.405500
N      5.267200    2.549600    1.208500
H      1.715700    2.456500    2.698100
H      3.742600    2.326500    4.214600
H      6.000900    2.398200    3.105400
