22

O      1.224000    0.000000    0.000000
C      0.000000    0.000000    0.000000
N     -0.718000    0.000000    1.154000
H     -1.717000    0.061000    1.108000
C     -0.809000   -0.010000   -1.276000
C     -0.049000    0.046000    2.436000
H     -0.777000   -0.133000    3.221000
H      0.720000   -0.720000    2.476000
H      0.429000    1.010000    2.602000
H     -1.882000   -0.038000   -1.106000
H     -0.515000   -0.876000   -1.863000
H     -0.559000    0.879000   -1.850000
C      0.926500    1.752300   -3.886100
C      0.385400    2.932500   -4.395700
C      0.568600    4.063900   -3.624500
C      1.267800    3.915400   -2.427600
Br     0.731400    0.150700   -4.862600
N      1.589000    1.649700   -2.737000
N      1.762500    2.752000   -1.994400
H     -0.141800    2.944100   -5.337600
H      0.187600    5.027400   -3.931700
H      1.450400    4.755100   -1.771500
