22

O      1.224000    0.000000    0.000000
C      0.000000    0.000000    0.000000
N     -0.718000    0.000000    1.154000
H     -1.717000    0.061000    1.108000
C     -0.809000   -0.010000   -1.276000
C     -0.049000    0.046000    2.436000
H     -0.777000   -0.133000    3.221000
H      0.720000   -0.720000    2.476000
H      0.429000    1.010000    2.602000
H     -1.882000   -0.038000   -1.106000
H     -0.515000   -0.876000   -1.863000
H     -0.559000    0.879000   -1.850000
C      4.465500    1.384700   -0.736700
C      5.358100    1.870100    0.218900
C      5.326500    1.243000    1.449300
C      4.416400    0.199500    1.611900
Br     4.429000    2.172500   -2.449800
N      3.609800    0.384300   -0.544000
N      3.585300   -0.219000    0.652700
H      6.026600    2.687300   -0.005700
H      5.978500    1.544900    2.256500
H      4.334000   -0.338500    2.546000
