22

O      1.224000    0.000000    0.000000
C      0.000000    0.000000    0.000000
N     -0.718000    0.000000    1.154000
H     -1.717000    0.061000    1.108000
C     -0.809000   -0.010000   -1.276000
C     -0.049000    0.046000    2.436000
H     -0.777000   -0.133000    3.221000
H      0.720000   -0.720000    2.476000
H      0.429000    1.010000    2.602000
H     -1.882000   -0.038000   -1.106000
H     -0.515000   -0.876000   -1.863000
H     -0.559000    0.879000   -1.850000
C      2.891000    0.396400    4.940600
C      2.107100    1.549400    4.900600
C      2.047000    2.280400    6.071300
C      2.767300    1.798900    7.163300
Br     3.039300   -0.672700    3.394100
N      3.565500   -0.032000    6.004400
N      3.502000    0.682900    7.136400
H      1.585300    1.838900    4.001200
H      1.466800    3.189300    6.143000
H      2.768600    2.316600    8.112500
