22

O      1.224000    0.000000    0.000000
C      0.000000    0.000000    0.000000
N     -0.718000    0.000000    1.154000
H     -1.717000    0.061000    1.108000
C     -0.809000   -0.010000   -1.276000
C     -0.049000    0.046000    2.436000
H     -0.777000   -0.133000    3.221000
H      0.720000   -0.720000    2.476000
H      0.429000    1.010000    2.602000
H     -1.882000   -0.038000   -1.106000
H     -0.515000   -0.876000   -1.863000
H     -0.559000    0.879000   -1.850000
C      1.197100   -4.382800   -4.370800
C      2.236700   -3.685000   -4.985500
C      2.490500   -4.015100   -6.302700
C      1.691900   -5.001300   -6.879900
Br     0.769900   -4.006900   -2.572800
N      0.455400   -5.319700   -4.955800
N      0.708000   -5.634300   -6.234000
H      2.799100   -2.935200   -4.450200
H      3.274900   -3.531800   -6.867400
H      1.830800   -5.312700   -7.905900
