22

O      1.224000    0.000000    0.000000
C      0.000000    0.000000    0.000000
N     -0.718000    0.000000    1.154000
H     -1.717000    0.061000    1.108000
C     -0.809000   -0.010000   -1.276000
C     -0.049000    0.046000    2.436000
H     -0.777000   -0.133000    3.221000
H      0.720000   -0.720000    2.476000
H      0.429000    1.010000    2.602000
H     -1.882000   -0.038000   -1.106000
H     -0.515000   -0.876000   -1.863000
H     -0.559000    0.879000   -1.850000
C     -1.623400    2.660100    3.370700
C     -2.476600    3.725500    3.657700
C     -2.019800    4.629600    4.597100
C     -0.766400    4.390200    5.158300
Br    -2.153300    1.369500    2.101800
N     -0.431400    2.464600    3.928400
N      0.004600    3.346400    4.838900
H     -3.432800    3.823100    3.166600
H     -2.606200    5.489200    4.888700
H     -0.342700    5.053400    5.899600
