22

O      1.224000    0.000000    0.000000
C      0.000000    0.000000    0.000000
N     -0.718000    0.000000    1.154000
H     -1.717000    0.061000    1.108000
C     -0.809000   -0.010000   -1.276000
C     -0.049000    0.046000    2.436000
H     -0.777000   -0.133000    3.221000
H      0.720000   -0.720000    2.476000
H      0.429000    1.010000    2.602000
H     -1.882000   -0.038000   -1.106000
H     -0.515000   -0.876000   -1.863000
H     -0.559000    0.879000   -1.850000
C     -0.545600   -3.195000   -1.259700
C      0.632400   -2.965400   -1.970400
C      0.904600   -3.853800   -2.992600
C     -0.014100   -4.879500   -3.209800
Br    -1.009400   -2.038800    0.156200
N     -1.399600   -4.187200   -1.496900
N     -1.128200   -5.045000   -2.490500
H      1.281200   -2.138700   -1.723700
H      1.792200   -3.762100   -3.602200
H      0.130900   -5.612500   -3.991100
