22

O      1.224000    0.000000    0.000000
C      0.000000    0.000000    0.000000
N     -0.718000    0.000000    1.154000
H     -1.717000    0.061000    1.108000
C     -0.809000   -0.010000   -1.276000
C     -0.049000    0.046000    2.436000
H     -0.777000   -0.133000    3.221000
H      0.720000   -0.720000    2.476000
H      0.429000    1.010000    2.602000
H     -1.882000   -0.038000   -1.106000
H     -0.515000   -0.876000   -1.863000
H     -0.559000    0.879000   -1.850000
C     -0.002700   -2.469800   -2.086800
C      0.597900   -3.372600   -1.209500
C      1.950600   -3.584700   -1.392600
C      2.573800   -2.883500   -2.423800
Br    -1.846500   -2.109800   -1.921300
N      0.626600   -1.818100   -3.061200
N      1.939200   -2.029300   -3.232300
H      0.025800   -3.867500   -0.439400
H      2.507900   -4.265300   -0.764900
H      3.629400   -2.997400   -2.627800
