22

O      1.224000    0.000000    0.000000
C      0.000000    0.000000    0.000000
N     -0.718000    0.000000    1.154000
H     -1.717000    0.061000    1.108000
C     -0.809000   -0.010000   -1.276000
C     -0.049000    0.046000    2.436000
H     -0.777000   -0.133000    3.221000
H      0.720000   -0.720000    2.476000
H      0.429000    1.010000    2.602000
H     -1.882000   -0.038000   -1.106000
H     -0.515000   -0.876000   -1.863000
H     -0.559000    0.879000   -1.850000
C      0.420100    3.870300    0.858900
C      1.584100    3.103000    0.901200
C      2.756900    3.795900    1.131000
C      2.661700    5.176900    1.295800
Br    -1.234900    3.020100    0.551000
N      0.368900    5.189800    1.021100
N      1.511200    5.854800    1.243700
H      1.553100    2.033200    0.761000
H      3.712000    3.292900    1.181900
H      3.535900    5.786100    1.478800
