22

O      1.224000    0.000000    0.000000
C      0.000000    0.000000    0.000000
N     -0.718000    0.000000    1.154000
H     -1.717000    0.061000    1.108000
C     -0.809000   -0.010000   -1.276000
C     -0.049000    0.046000    2.436000
H     -0.777000   -0.133000    3.221000
H      0.720000   -0.720000    2.476000
H      0.429000    1.010000    2.602000
H     -1.882000   -0.038000   -1.106000
H     -0.515000   -0.876000   -1.863000
H     -0.559000    0.879000   -1.850000
C     -0.727100   -2.689500   -2.370100
C      0.185600   -2.755800   -1.317500
C      1.441800   -3.234200   -1.635900
C      1.669900   -3.599000   -2.961900
Br    -2.470500   -2.050100   -2.041000
N     -0.472000   -3.047600   -3.625800
N      0.749300   -3.510900   -3.926600
H     -0.089100   -2.447800   -0.320100
H      2.219800   -3.324200   -0.891200
H      2.627600   -3.981700   -3.286400
