22

O      1.224000    0.000000    0.000000
C      0.000000    0.000000    0.000000
N     -0.718000    0.000000    1.154000
H     -1.717000    0.061000    1.108000
C     -0.809000   -0.010000   -1.276000
C     -0.049000    0.046000    2.436000
H     -0.777000   -0.133000    3.221000
H      0.720000   -0.720000    2.476000
H      0.429000    1.010000    2.602000
H     -1.882000   -0.038000   -1.106000
H     -0.515000   -0.876000   -1.863000
H     -0.559000    0.879000   -1.850000
C     -0.618100    3.492600    3.556700
C     -0.447200    4.068800    4.815300
C     -0.171800    5.422500    4.828200
C     -0.093100    6.070500    3.596400
Br    -0.997700    1.649700    3.429300
N     -0.535200    4.145300    2.400300
N     -0.267700    5.458600    2.421300
H     -0.528400    3.478500    5.715400
H     -0.022700    5.962000    5.752500
H      0.118700    7.128400    3.526600
