22

O      1.224000    0.000000    0.000000
C      0.000000    0.000000    0.000000
N     -0.718000    0.000000    1.154000
H     -1.717000    0.061000    1.108000
C     -0.809000   -0.010000   -1.276000
C     -0.049000    0.046000    2.436000
H     -0.777000   -0.133000    3.221000
H      0.720000   -0.720000    2.476000
H      0.429000    1.010000    2.602000
H     -1.882000   -0.038000   -1.106000
H     -0.515000   -0.876000   -1.863000
H     -0.559000    0.879000   -1.850000
C     -0.184400   -2.144400    4.306000
C     -1.288700   -1.305600    4.455600
C     -2.098000   -1.560300    5.545900
C     -1.734800   -2.617800    6.378400
Br     0.984000   -1.880700    2.849300
N      0.130300   -3.145900    5.123300
N     -0.660000   -3.386500    6.178900
H     -1.484900   -0.510000    3.753000
H     -2.977900   -0.967000    5.749800
H     -2.318900   -2.877300    7.250500
