22

O      1.225500   -0.000000   -0.000000
C      0.000000   -0.000000   -0.000000
N     -0.713000    0.000000    1.154400
H     -1.712600    0.063700    1.111800
C     -0.806800   -0.008800   -1.275400
C     -0.038900    0.050500    2.435000
H     -0.754300   -0.173300    3.220300
H      0.760300   -0.685200    2.452100
H      0.401600    1.029800    2.616000
H     -1.879900   -0.053500   -1.105800
H     -0.500400   -0.864800   -1.870900
H     -0.569100    0.889100   -1.840600
C      5.253200   -2.950200   -4.170500
C      5.738700   -3.194900   -5.455000
C      6.846900   -4.015600   -5.536200
C      7.363900   -4.511900   -4.340500
Br     3.743200   -1.842000   -3.950300
N      5.774800   -3.442900   -3.050200
N      6.850100   -4.238500   -3.137500
H      5.265300   -2.761400   -6.322900
H      7.298700   -4.266000   -6.485400
H      8.229100   -5.159900   -4.324300
