22

O      1.225500   -0.000000   -0.000000
C      0.000000   -0.000000   -0.000000
N     -0.713000    0.000000    1.154400
H     -1.712600    0.063700    1.111800
C     -0.806800   -0.008800   -1.275400
C     -0.038900    0.050500    2.435000
H     -0.754300   -0.173300    3.220300
H      0.760300   -0.685200    2.452100
H      0.401600    1.029800    2.616000
H     -1.879900   -0.053500   -1.105800
H     -0.500400   -0.864800   -1.870900
H     -0.569100    0.889100   -1.840600
C     -0.082800   -3.844400   -5.326600
C      0.059500   -3.295500   -6.601000
C      0.362000   -4.186300   -7.612600
C      0.493400   -5.529500   -7.263400
Br    -0.495800   -2.713000   -3.875400
N      0.050500   -5.134800   -5.031700
N      0.344000   -5.992800   -6.018800
H     -0.062600   -2.236300   -6.769600
H      0.492500   -3.860600   -8.634600
H      0.728900   -6.284900   -8.000200
