22

O      1.225500   -0.000000   -0.000000
C      0.000000   -0.000000   -0.000000
N     -0.713000    0.000000    1.154400
H     -1.712600    0.063700    1.111800
C     -0.806800   -0.008800   -1.275400
C     -0.038900    0.050500    2.435000
H     -0.754300   -0.173300    3.220300
H      0.760300   -0.685200    2.452100
H      0.401600    1.029800    2.616000
H     -1.879900   -0.053500   -1.105800
H     -0.500400   -0.864800   -1.870900
H     -0.569100    0.889100   -1.840600
C      0.826300   -3.271800   -5.277100
C      2.139800   -3.671200   -5.523400
C      2.331300   -4.465900   -6.637000
C      1.206000   -4.786100   -7.395000
Br     0.457500   -2.184400   -3.781000
N     -0.224300   -3.598300   -6.025300
N     -0.030100   -4.369800   -7.104100
H      2.946600   -3.368700   -4.873200
H      3.311300   -4.827500   -6.913800
H      1.277100   -5.403300   -8.279800
