22

O      1.225500   -0.000000   -0.000000
C      0.000000   -0.000000   -0.000000
N     -0.713000    0.000000    1.154400
H     -1.712600    0.063700    1.111800
C     -0.806800   -0.008800   -1.275400
C     -0.038900    0.050500    2.435000
H     -0.754300   -0.173300    3.220300
H      0.760300   -0.685200    2.452100
H      0.401600    1.029800    2.616000
H     -1.879900   -0.053500   -1.105800
H     -0.500400   -0.864800   -1.870900
H     -0.569100    0.889100   -1.840600
C      5.130300   -0.659300   -4.050800
C      5.317400    0.702600   -4.286900
C      6.099000    1.024900   -5.379400
C      6.616900   -0.030400   -6.128600
Br     4.079000   -1.205600   -2.583500
N      5.642200   -1.639900   -4.790000
N      6.399500   -1.318900   -5.848400
H      4.871300    1.447000   -3.645000
H      6.303700    2.051700   -5.647000
H      7.237000    0.143500   -6.997000
