22

O      1.225500   -0.000000   -0.000000
C      0.000000   -0.000000   -0.000000
N     -0.713000    0.000000    1.154400
H     -1.712600    0.063700    1.111800
C     -0.806800   -0.008800   -1.275400
C     -0.038900    0.050500    2.435000
H     -0.754300   -0.173300    3.220300
H      0.760300   -0.685200    2.452100
H      0.401600    1.029800    2.616000
H     -1.879900   -0.053500   -1.105800
H     -0.500400   -0.864800   -1.870900
H     -0.569100    0.889100   -1.840600
C     -3.389600    4.502000    1.919100
C     -3.799300    5.269900    0.829200
C     -4.345000    6.503000    1.129400
C     -4.431100    6.853200    2.475900
Br    -2.631100    2.802000    1.617200
N     -3.488200    4.871200    3.193500
N     -4.018900    6.069100    3.476500
H     -3.689500    4.907800   -0.181800
H     -4.692600    7.172700    0.355800
H     -4.846300    7.801400    2.788200
