22

O      1.224000    0.000000    0.000000
C      0.000000    0.000000    0.000000
N     -0.718000    0.000000    1.154000
H     -1.717000    0.061000    1.108000
C     -0.809000   -0.010000   -1.276000
C     -0.049000    0.046000    2.436000
H     -0.777000   -0.133000    3.221000
H      0.720000   -0.720000    2.476000
H      0.429000    1.010000    2.602000
H     -1.882000   -0.038000   -1.106000
H     -0.515000   -0.876000   -1.863000
H     -0.559000    0.879000   -1.850000
C     -0.962600   -3.941400   -1.322900
C     -0.828000   -2.724800   -1.991500
C     -1.615300   -2.562100   -3.115000
C     -2.456200   -3.617500   -3.464700
Br     0.068000   -4.263600    0.223300
N     -1.777900   -4.927400   -1.687900
N     -2.538500   -4.761700   -2.779100
H     -0.145300   -1.966500   -1.639200
H     -1.584600   -1.655600   -3.702400
H     -3.101400   -3.563500   -4.330500
