22

O      1.224000    0.000000    0.000000
C      0.000000    0.000000    0.000000
N     -0.718000    0.000000    1.154000
H     -1.717000    0.061000    1.108000
C     -0.809000   -0.010000   -1.276000
C     -0.049000    0.046000    2.436000
H     -0.777000   -0.133000    3.221000
H      0.720000   -0.720000    2.476000
H      0.429000    1.010000    2.602000
H     -1.882000   -0.038000   -1.106000
H     -0.515000   -0.876000   -1.863000
H     -0.559000    0.879000   -1.850000
C      0.411700    3.909100    4.147000
C      0.029000    5.240300    4.311000
C     -1.159000    5.449300    4.984300
C     -1.849200    4.322200    5.427800
Br     2.018300    3.515700    3.241100
N     -0.275200    2.857500    4.585500
N     -1.426900    3.068600    5.237900
H      0.635900    6.047000    3.928700
H     -1.542300    6.443800    5.162700
H     -2.785500    4.406400    5.961800
