22

O      1.224000    0.000000    0.000000
C      0.000000    0.000000    0.000000
N     -0.718000    0.000000    1.154000
H     -1.717000    0.061000    1.108000
C     -0.809000   -0.010000   -1.276000
C     -0.049000    0.046000    2.436000
H     -0.777000   -0.133000    3.221000
H      0.720000   -0.720000    2.476000
H      0.429000    1.010000    2.602000
H     -1.882000   -0.038000   -1.106000
H     -0.515000   -0.876000   -1.863000
H     -0.559000    0.879000   -1.850000
C      4.264900   -2.535500    4.623100
C      3.193000   -2.178400    5.441100
C      3.228300   -2.668400    6.732200
C      4.318900   -3.461700    7.085300
Br     4.312100   -1.918100    2.841800
N      5.290200   -3.296600    4.996800
N      5.317100   -3.768100    6.251200
H      2.392100   -1.555900    5.071900
H      2.445100   -2.448700    7.443600
H      4.415700   -3.880700    8.077200
