22

O      1.224000    0.000000    0.000000
C      0.000000    0.000000    0.000000
N     -0.718000    0.000000    1.154000
H     -1.717000    0.061000    1.108000
C     -0.809000   -0.010000   -1.276000
C     -0.049000    0.046000    2.436000
H     -0.777000   -0.133000    3.221000
H      0.720000   -0.720000    2.476000
H      0.429000    1.010000    2.602000
H     -1.882000   -0.038000   -1.106000
H     -0.515000   -0.876000   -1.863000
H     -0.559000    0.879000   -1.850000
C     -1.027100    2.374700   -1.339400
C     -1.230400    2.356000    0.040300
C     -2.185300    1.469200    0.498800
C     -2.843100    0.690300   -0.451900
Br     0.255100    3.550500   -2.067500
N     -1.676000    1.614200   -2.217300
N     -2.601000    0.756300   -1.764500
H     -0.667100    3.002100    0.696500
H     -2.416800    1.379000    1.550400
H     -3.602300   -0.025700   -0.169100
