22

O      1.224000    0.000000    0.000000
C      0.000000    0.000000    0.000000
N     -0.718000    0.000000    1.154000
H     -1.717000    0.061000    1.108000
C     -0.809000   -0.010000   -1.276000
C     -0.049000    0.046000    2.436000
H     -0.777000   -0.133000    3.221000
H      0.720000   -0.720000    2.476000
H      0.429000    1.010000    2.602000
H     -1.882000   -0.038000   -1.106000
H     -0.515000   -0.876000   -1.863000
H     -0.559000    0.879000   -1.850000
C      3.979400    1.250000    4.958100
C      3.561200    2.364800    5.684400
C      3.319200    2.154800    7.028200
C      3.514700    0.864800    7.519000
Br     4.336600    1.430200    3.115100
N      4.155200    0.031600    5.462800
N      3.918200   -0.163900    6.767600
H      3.438900    3.326700    5.210000
H      2.991500    2.954500    7.677000
H      3.345600    0.624000    8.559400
