22

O      1.224000    0.000000    0.000000
C      0.000000    0.000000    0.000000
N     -0.718000    0.000000    1.154000
H     -1.717000    0.061000    1.108000
C     -0.809000   -0.010000   -1.276000
C     -0.049000    0.046000    2.436000
H     -0.777000   -0.133000    3.221000
H      0.720000   -0.720000    2.476000
H      0.429000    1.010000    2.602000
H     -1.882000   -0.038000   -1.106000
H     -0.515000   -0.876000   -1.863000
H     -0.559000    0.879000   -1.850000
C     -1.274800    3.818400    4.581700
C     -2.619200    3.696700    4.932700
C     -2.911100    3.859000    6.273100
C     -1.845600    4.125200    7.131700
Br    -0.770300    3.614200    2.776000
N     -0.283600    4.073700    5.431700
N     -0.575100    4.229900    6.730700
H     -3.373600    3.488100    4.189400
H     -3.922400    3.783800    6.646300
H     -1.996000    4.264200    8.193300
