22

O      1.224000    0.000000    0.000000
C      0.000000    0.000000    0.000000
N     -0.718000    0.000000    1.154000
H     -1.717000    0.061000    1.108000
C     -0.809000   -0.010000   -1.276000
C     -0.049000    0.046000    2.436000
H     -0.777000   -0.133000    3.221000
H      0.720000   -0.720000    2.476000
H      0.429000    1.010000    2.602000
H     -1.882000   -0.038000   -1.106000
H     -0.515000   -0.876000   -1.863000
H     -0.559000    0.879000   -1.850000
C      3.507800   -3.212400    1.652900
C      3.464000   -2.514100    2.859500
C      4.372500   -1.482100    2.994100
C      5.232600   -1.243900    1.923200
Br     2.308800   -4.640100    1.368900
N      4.345200   -2.955100    0.651600
N      5.223600   -1.952100    0.789900
H      2.756800   -2.777000    3.631500
H      4.418800   -0.880800    3.890800
H      5.970000   -0.453900    1.955100
