22

O      1.224000    0.000000    0.000000
C      0.000000    0.000000    0.000000
N     -0.718000    0.000000    1.154000
H     -1.717000    0.061000    1.108000
C     -0.809000   -0.010000   -1.276000
C     -0.049000    0.046000    2.436000
H     -0.777000   -0.133000    3.221000
H      0.720000   -0.720000    2.476000
H      0.429000    1.010000    2.602000
H     -1.882000   -0.038000   -1.106000
H     -0.515000   -0.876000   -1.863000
H     -0.559000    0.879000   -1.850000
C      4.997300   -0.795400    0.899300
C      5.638600    0.372900    0.488000
C      5.531900    0.680600   -0.854500
C      4.802400   -0.196800   -1.655400
Br     5.082300   -1.305300    2.713000
N      4.308700   -1.609400    0.103400
N      4.209800   -1.303800   -1.197900
H      6.181500    0.988400    1.189200
H      5.993200    1.564100   -1.272100
H      4.675300   -0.022400   -2.714800
