22

O      1.224000    0.000000    0.000000
C      0.000000    0.000000    0.000000
N     -0.718000    0.000000    1.154000
H     -1.717000    0.061000    1.108000
C     -0.809000   -0.010000   -1.276000
C     -0.049000    0.046000    2.436000
H     -0.777000   -0.133000    3.221000
H      0.720000   -0.720000    2.476000
H      0.429000    1.010000    2.602000
H     -1.882000   -0.038000   -1.106000
H     -0.515000   -0.876000   -1.863000
H     -0.559000    0.879000   -1.850000
C     -0.652900   -1.440100    4.504000
C      0.243500   -0.489300    4.991900
C     -0.174300    0.223200    6.099200
C     -1.435300   -0.075200    6.613000
Br    -0.178400   -2.466900    2.995000
N     -1.850800   -1.697100    5.022600
N     -2.248800   -1.001500    6.097000
H      1.202000   -0.332200    4.520900
H      0.447200    0.982100    6.552700
H     -1.830300    0.440300    7.477400
