22

O      1.224000    0.000000    0.000000
C      0.000000    0.000000    0.000000
N     -0.718000    0.000000    1.154000
H     -1.717000    0.061000    1.108000
C     -0.809000   -0.010000   -1.276000
C     -0.049000    0.046000    2.436000
H     -0.777000   -0.133000    3.221000
H      0.720000   -0.720000    2.476000
H      0.429000    1.010000    2.602000
H     -1.882000   -0.038000   -1.106000
H     -0.515000   -0.876000   -1.863000
H     -0.559000    0.879000   -1.850000
C     -1.039000    2.570200    0.265900
C     -1.897200    2.030700   -0.692200
C     -1.367200    1.872800   -1.958100
C     -0.043000    2.263600   -2.150100
Br    -1.665400    2.826700    2.026100
N      0.222000    2.932100    0.044300
N      0.728800    2.775600   -1.186700
H     -2.911600    1.758400   -0.443100
H     -1.951000    1.463400   -2.770200
H      0.440300    2.170200   -3.112700
