22

O      1.224000    0.000000    0.000000
C      0.000000    0.000000    0.000000
N     -0.718000    0.000000    1.154000
H     -1.717000    0.061000    1.108000
C     -0.809000   -0.010000   -1.276000
C     -0.049000    0.046000    2.436000
H     -0.777000   -0.133000    3.221000
H      0.720000   -0.720000    2.476000
H      0.429000    1.010000    2.602000
H     -1.882000   -0.038000   -1.106000
H     -0.515000   -0.876000   -1.863000
H     -0.559000    0.879000   -1.850000
C      2.166100   -0.513600   -3.174100
C      2.142200    0.879900   -3.117600
C      0.890500    1.464100   -3.132200
C     -0.211500    0.613100   -3.201100
Br     3.825600   -1.409400   -3.159700
N      1.090400   -1.293800   -3.239200
N     -0.120500   -0.719200   -3.252900
H      3.055900    1.452400   -3.066000
H      0.764900    2.536700   -3.092000
H     -1.222100    0.996700   -3.216400
