22

O      1.224000    0.000000    0.000000
C      0.000000    0.000000    0.000000
N     -0.718000    0.000000    1.154000
H     -1.717000    0.061000    1.108000
C     -0.809000   -0.010000   -1.276000
C     -0.049000    0.046000    2.436000
H     -0.777000   -0.133000    3.221000
H      0.720000   -0.720000    2.476000
H      0.429000    1.010000    2.602000
H     -1.882000   -0.038000   -1.106000
H     -0.515000   -0.876000   -1.863000
H     -0.559000    0.879000   -1.850000
C      5.539500    1.271100   -3.678200
C      5.563100   -0.119900   -3.779200
C      6.793600   -0.685500   -4.051600
C      7.876900    0.179900   -4.196800
Br     3.908100    2.142000   -3.308700
N      6.597000    2.065300   -3.823400
N      7.787400    1.508800   -4.087600
H      4.664900   -0.704400   -3.649700
H      6.917100   -1.754600   -4.149200
H      8.870500   -0.188900   -4.410600
