22

O      1.224000    0.000000    0.000000
C      0.000000    0.000000    0.000000
N     -0.718000    0.000000    1.154000
H     -1.717000    0.061000    1.108000
C     -0.809000   -0.010000   -1.276000
C     -0.049000    0.046000    2.436000
H     -0.777000   -0.133000    3.221000
H      0.720000   -0.720000    2.476000
H      0.429000    1.010000    2.602000
H     -1.882000   -0.038000   -1.106000
H     -0.515000   -0.876000   -1.863000
H     -0.559000    0.879000   -1.850000
C     -0.390400   -0.528400   -4.210800
C     -0.312100    0.562400   -3.345100
C     -1.437900    1.359800   -3.274000
C     -2.527600    0.999500   -4.065300
Br     1.093300   -1.680000   -4.380900
N     -1.450500   -0.840800   -4.951700
N     -2.538900   -0.062000   -4.877000
H      0.581700    0.757500   -2.772200
H     -1.477600    2.228800   -2.632800
H     -3.442900    1.574900   -4.063000
