22

O      1.224000    0.000000    0.000000
C      0.000000    0.000000    0.000000
N     -0.718000    0.000000    1.154000
H     -1.717000    0.061000    1.108000
C     -0.809000   -0.010000   -1.276000
C     -0.049000    0.046000    2.436000
H     -0.777000   -0.133000    3.221000
H      0.720000   -0.720000    2.476000
H      0.429000    1.010000    2.602000
H     -1.882000   -0.038000   -1.106000
H     -0.515000   -0.876000   -1.863000
H     -0.559000    0.879000   -1.850000
C      3.034600    0.941300   -2.615200
C      2.032000    0.744800   -3.564800
C      0.786800    1.248700   -3.242300
C      0.657500    1.895800   -2.014400
Br     4.771300    0.291400   -2.958900
N      2.872600    1.565500   -1.451500
N      1.661300    2.051500   -1.146000
H      2.233500    0.228100   -4.490800
H     -0.056100    1.148100   -3.911000
H     -0.285600    2.315800   -1.693100
