22

O      1.224000    0.000000    0.000000
C      0.000000    0.000000    0.000000
N     -0.718000    0.000000    1.154000
H     -1.717000    0.061000    1.108000
C     -0.809000   -0.010000   -1.276000
C     -0.049000    0.046000    2.436000
H     -0.777000   -0.133000    3.221000
H      0.720000   -0.720000    2.476000
H      0.429000    1.010000    2.602000
H     -1.882000   -0.038000   -1.106000
H     -0.515000   -0.876000   -1.863000
H     -0.559000    0.879000   -1.850000
C      5.730200   -3.337300   -1.537000
C      5.823000   -4.426600   -0.670900
C      7.017700   -5.119800   -0.697200
C      8.000200   -4.667100   -1.576500
Br     4.140200   -2.323900   -1.578100
N      6.691800   -2.934700   -2.363700
N      7.848000   -3.612600   -2.383300
H      5.001700   -4.698300   -0.025300
H      7.189000   -5.978600   -0.064100
H      8.960300   -5.158200   -1.653100
