22

O      1.224000    0.000000    0.000000
C      0.000000    0.000000    0.000000
N     -0.718000    0.000000    1.154000
H     -1.717000    0.061000    1.108000
C     -0.809000   -0.010000   -1.276000
C     -0.049000    0.046000    2.436000
H     -0.777000   -0.133000    3.221000
H      0.720000   -0.720000    2.476000
H      0.429000    1.010000    2.602000
H     -1.882000   -0.038000   -1.106000
H     -0.515000   -0.876000   -1.863000
H     -0.559000    0.879000   -1.850000
C      0.703800   -4.720700    0.888000
C      0.938900   -6.081700    1.082000
C     -0.154500   -6.836100    1.461400
C     -1.369900   -6.169900    1.610700
Br     2.130900   -3.602500    0.368700
N     -0.473300   -4.119600    1.040600
N     -1.529300   -4.858500    1.408800
H      1.922000   -6.504400    0.940200
H     -0.076400   -7.899600    1.636500
H     -2.269100   -6.693100    1.905100
