22

O      1.224000    0.000000    0.000000
C      0.000000    0.000000    0.000000
N     -0.718000    0.000000    1.154000
H     -1.717000    0.061000    1.108000
C     -0.809000   -0.010000   -1.276000
C     -0.049000    0.046000    2.436000
H     -0.777000   -0.133000    3.221000
H      0.720000   -0.720000    2.476000
H      0.429000    1.010000    2.602000
H     -1.882000   -0.038000   -1.106000
H     -0.515000   -0.876000   -1.863000
H     -0.559000    0.879000   -1.850000
C      3.914000    0.127000   -4.523500
C      2.561800   -0.214200   -4.542400
C      1.996500   -0.376100   -5.792500
C      2.824000   -0.184700   -6.897900
Br     4.781100    0.371300   -2.866700
N      4.672800    0.301400   -5.602400
N      4.116900    0.142500   -6.811700
H      2.004800   -0.340300   -3.626400
H      0.955800   -0.640300   -5.914300
H      2.453100   -0.293900   -7.907600
