22

O      1.224000    0.000000    0.000000
C      0.000000    0.000000    0.000000
N     -0.718000    0.000000    1.154000
H     -1.717000    0.061000    1.108000
C     -0.809000   -0.010000   -1.276000
C     -0.049000    0.046000    2.436000
H     -0.777000   -0.133000    3.221000
H      0.720000   -0.720000    2.476000
H      0.429000    1.010000    2.602000
H     -1.882000   -0.038000   -1.106000
H     -0.515000   -0.876000   -1.863000
H     -0.559000    0.879000   -1.850000
C      4.496600    2.781800   -1.776100
C      3.644200    3.118300   -2.827600
C      4.076900    4.137000   -3.654300
C      5.307900    4.720700   -3.359000
Br     3.998500    1.403400   -0.589300
N      5.666800    3.363100   -1.525700
N      6.079600    4.350800   -2.332500
H      2.706400    2.603800   -2.972700
H      3.489000    4.471800   -4.496900
H      5.712100    5.523000   -3.960400
