22

O      1.224000    0.000000    0.000000
C      0.000000    0.000000    0.000000
N     -0.718000    0.000000    1.154000
H     -1.717000    0.061000    1.108000
C     -0.809000   -0.010000   -1.276000
C     -0.049000    0.046000    2.436000
H     -0.777000   -0.133000    3.221000
H      0.720000   -0.720000    2.476000
H      0.429000    1.010000    2.602000
H     -1.882000   -0.038000   -1.106000
H     -0.515000   -0.876000   -1.863000
H     -0.559000    0.879000   -1.850000
C      3.929100   -0.828800   -2.408500
C      3.641700   -0.272300   -3.654800
C      4.712000   -0.137200   -4.517800
C      5.958100   -0.565500   -4.062700
Br     2.537200   -1.056500   -1.156500
N      5.134200   -1.226600   -2.009300
N      6.167500   -1.092200   -2.852500
H      2.638200    0.029400   -3.913600
H      4.593600    0.282700   -5.506400
H      6.841900   -0.491700   -4.681200
