22

O      1.224000    0.000000    0.000000
C      0.000000    0.000000    0.000000
N     -0.718000    0.000000    1.154000
H     -1.717000    0.061000    1.108000
C     -0.809000   -0.010000   -1.276000
C     -0.049000    0.046000    2.436000
H     -0.777000   -0.133000    3.221000
H      0.720000   -0.720000    2.476000
H      0.429000    1.010000    2.602000
H     -1.882000   -0.038000   -1.106000
H     -0.515000   -0.876000   -1.863000
H     -0.559000    0.879000   -1.850000
C     -1.145000    3.266500   -1.615300
C     -1.229700    3.519500   -0.246300
C     -1.928200    4.654700    0.116700
C     -2.472700    5.425600   -0.909300
Br    -0.212700    1.741200   -2.216000
N     -1.679100    4.027500   -2.567000
N     -2.355400    5.127300   -2.206600
H     -0.771400    2.858000    0.473200
H     -2.050600    4.938300    1.152200
H     -3.032100    6.327500   -0.703000
