22

O      1.224000    0.000000    0.000000
C      0.000000    0.000000    0.000000
N     -0.718000    0.000000    1.154000
H     -1.717000    0.061000    1.108000
C     -0.809000   -0.010000   -1.276000
C     -0.049000    0.046000    2.436000
H     -0.777000   -0.133000    3.221000
H      0.720000   -0.720000    2.476000
H      0.429000    1.010000    2.602000
H     -1.882000   -0.038000   -1.106000
H     -0.515000   -0.876000   -1.863000
H     -0.559000    0.879000   -1.850000
C      4.878200   -1.665700   -0.208700
C      3.892100   -2.365400    0.486500
C      3.999300   -3.742600    0.465400
C      5.069900   -4.289600   -0.240200
Br     4.822700    0.219100   -0.241800
N      5.887100   -2.224400   -0.872100
N      5.984200   -3.561200   -0.887700
H      3.099600   -1.847000    1.004500
H      3.285200   -4.374700    0.973500
H      5.219500   -5.358600   -0.301600
