22

O      1.224000    0.000000    0.000000
C      0.000000    0.000000    0.000000
N     -0.718000    0.000000    1.154000
H     -1.717000    0.061000    1.108000
C     -0.809000   -0.010000   -1.276000
C     -0.049000    0.046000    2.436000
H     -0.777000   -0.133000    3.221000
H      0.720000   -0.720000    2.476000
H      0.429000    1.010000    2.602000
H     -1.882000   -0.038000   -1.106000
H     -0.515000   -0.876000   -1.863000
H     -0.559000    0.879000   -1.850000
C      3.176200    2.304400   -0.843100
C      4.233000    1.410800   -0.669200
C      4.614100    0.699800   -1.790700
C      3.912900    0.943100   -2.970700
Br     2.578900    3.324300    0.626500
N      2.530200    2.509700   -1.987900
N      2.906000    1.815900   -3.071400
H      4.713200    1.293800    0.290400
H      5.422100   -0.017100   -1.760000
H      4.153800    0.425000   -3.888600
