22

O      1.224000    0.000000    0.000000
C      0.000000    0.000000    0.000000
N     -0.718000    0.000000    1.154000
H     -1.717000    0.061000    1.108000
C     -0.809000   -0.010000   -1.276000
C     -0.049000    0.046000    2.436000
H     -0.777000   -0.133000    3.221000
H      0.720000   -0.720000    2.476000
H      0.429000    1.010000    2.602000
H     -1.882000   -0.038000   -1.106000
H     -0.515000   -0.876000   -1.863000
H     -0.559000    0.879000   -1.850000
C      5.098100   -2.371100   -2.505900
C      5.334800   -1.667700   -3.686900
C      6.521400   -0.962400   -3.743000
C      7.354500   -1.023100   -2.627000
Br     3.506300   -3.366600   -2.328000
N      5.919200   -2.405000   -1.459600
N      7.068500   -1.718100   -1.521900
H      4.623500   -1.683900   -4.498600
H      6.797400   -0.385600   -4.614100
H      8.298900   -0.497600   -2.597100
