22

O      1.224000    0.000000    0.000000
C      0.000000    0.000000    0.000000
N     -0.718000    0.000000    1.154000
H     -1.717000    0.061000    1.108000
C     -0.809000   -0.010000   -1.276000
C     -0.049000    0.046000    2.436000
H     -0.777000   -0.133000    3.221000
H      0.720000   -0.720000    2.476000
H      0.429000    1.010000    2.602000
H     -1.882000   -0.038000   -1.106000
H     -0.515000   -0.876000   -1.863000
H     -0.559000    0.879000   -1.850000
C      4.010300    4.160500    0.142100
C      4.551700    5.375700   -0.277200
C      4.570700    6.386100    0.664700
C      4.053000    6.094300    1.925800
Br     3.937600    2.716100   -1.068300
N      3.524700    3.919400    1.357100
N      3.546800    4.905000    2.265300
H      4.928800    5.502400   -1.280600
H      4.969400    7.364600    0.438600
H      4.033900    6.833900    2.714200
