22

O      1.224000    0.000000    0.000000
C      0.000000    0.000000    0.000000
N     -0.718000    0.000000    1.154000
H     -1.717000    0.061000    1.108000
C     -0.809000   -0.010000   -1.276000
C     -0.049000    0.046000    2.436000
H     -0.777000   -0.133000    3.221000
H      0.720000   -0.720000    2.476000
H      0.429000    1.010000    2.602000
H     -1.882000   -0.038000   -1.106000
H     -0.515000   -0.876000   -1.863000
H     -0.559000    0.879000   -1.850000
C      2.094300    1.683800    2.025300
C      3.063600    1.405200    1.061900
C      3.814400    0.264700    1.271800
C      3.531900   -0.485600    2.412300
Br     1.015200    3.218300    1.831800
N      1.853500    0.942000    3.103200
N      2.586200   -0.163100    3.299700
H      3.205800    2.052000    0.209500
H      4.590200   -0.038200    0.583300
H      4.077200   -1.390100    2.643500
