22

O      1.224000    0.000000    0.000000
C      0.000000    0.000000    0.000000
N     -0.718000    0.000000    1.154000
H     -1.717000    0.061000    1.108000
C     -0.809000   -0.010000   -1.276000
C     -0.049000    0.046000    2.436000
H     -0.777000   -0.133000    3.221000
H      0.720000   -0.720000    2.476000
H      0.429000    1.010000    2.602000
H     -1.882000   -0.038000   -1.106000
H     -0.515000   -0.876000   -1.863000
H     -0.559000    0.879000   -1.850000
C      2.298700    2.440800    2.313500
C      3.511200    3.118700    2.187600
C      3.426200    4.492500    2.069500
C      2.152200    5.058200    2.087700
Br     2.304800    0.562400    2.481000
N      1.099500    3.016800    2.326800
N      1.025600    4.350200    2.211700
H      4.450500    2.587000    2.184400
H      4.308300    5.108400    1.966900
H      2.006300    6.125800    2.000200
