22

O      1.224000    0.000000    0.000000
C      0.000000    0.000000    0.000000
N     -0.718000    0.000000    1.154000
H     -1.717000    0.061000    1.108000
C     -0.809000   -0.010000   -1.276000
C     -0.049000    0.046000    2.436000
H     -0.777000   -0.133000    3.221000
H      0.720000   -0.720000    2.476000
H      0.429000    1.010000    2.602000
H     -1.882000   -0.038000   -1.106000
H     -0.515000   -0.876000   -1.863000
H     -0.559000    0.879000   -1.850000
C      1.466200   -2.850900    3.385500
C      1.134100   -3.260600    2.094300
C      0.837000   -4.601300    1.943100
C      0.898000   -5.402100    3.082500
Br     1.888700   -1.039900    3.699000
N      1.513900   -3.646700    4.450700
N      1.224300   -4.946200    4.295600
H      1.114900   -2.559700    1.273600
H      0.567700   -5.017600    0.982900
H      0.679000   -6.460000    3.042500
