22

O      1.224000    0.000000    0.000000
C      0.000000    0.000000    0.000000
N     -0.718000    0.000000    1.154000
H     -1.717000    0.061000    1.108000
C     -0.809000   -0.010000   -1.276000
C     -0.049000    0.046000    2.436000
H     -0.777000   -0.133000    3.221000
H      0.720000   -0.720000    2.476000
H      0.429000    1.010000    2.602000
H     -1.882000   -0.038000   -1.106000
H     -0.515000   -0.876000   -1.863000
H     -0.559000    0.879000   -1.850000
C      3.033200   -3.241500   -0.796400
C      2.834400   -3.927700   -1.994300
C      2.854900   -5.306600   -1.911700
C      3.069600   -5.868500   -0.654200
Br     3.023500   -1.355600   -0.800700
N      3.235500   -3.814200    0.387300
N      3.254000   -5.152500    0.459100
H      2.675500   -3.398200   -2.921500
H      2.710800   -5.929000   -2.783300
H      3.098800   -6.939700   -0.511000
