22

O      1.224000    0.000000    0.000000
C      0.000000    0.000000    0.000000
N     -0.718000    0.000000    1.154000
H     -1.717000    0.061000    1.108000
C     -0.809000   -0.010000   -1.276000
C     -0.049000    0.046000    2.436000
H     -0.777000   -0.133000    3.221000
H      0.720000   -0.720000    2.476000
H      0.429000    1.010000    2.602000
H     -1.882000   -0.038000   -1.106000
H     -0.515000   -0.876000   -1.863000
H     -0.559000    0.879000   -1.850000
C      4.754300   -1.880100   -3.958900
C      4.721200   -1.222500   -5.188500
C      4.934300   -2.011800   -6.302100
C      5.158600   -3.371100   -6.088900
Br     4.475100   -0.892800   -2.376600
N      4.971900   -3.182400   -3.795000
N      5.177700   -3.941400   -4.880500
H      4.538800   -0.160400   -5.249000
H      4.928400   -1.597600   -7.300200
H      5.333000   -4.051200   -6.911000
