22

O      1.224000    0.000000    0.000000
C      0.000000    0.000000    0.000000
N     -0.718000    0.000000    1.154000
H     -1.717000    0.061000    1.108000
C     -0.809000   -0.010000   -1.276000
C     -0.049000    0.046000    2.436000
H     -0.777000   -0.133000    3.221000
H      0.720000   -0.720000    2.476000
H      0.429000    1.010000    2.602000
H     -1.882000   -0.038000   -1.106000
H     -0.515000   -0.876000   -1.863000
H     -0.559000    0.879000   -1.850000
C      0.707200   -3.258300   -2.812300
C      2.036200   -3.594000   -3.070500
C      2.250300   -4.853100   -3.597000
C      1.130200   -5.653700   -3.815300
Br     0.307100   -1.561700   -2.092600
N     -0.337800   -4.051200   -3.034500
N     -0.121600   -5.271400   -3.545500
H      2.837300   -2.900200   -2.865600
H      3.243600   -5.208100   -3.831900
H      1.218600   -6.650500   -4.224600
