22

O      1.224000    0.000000    0.000000
C      0.000000    0.000000    0.000000
N     -0.718000    0.000000    1.154000
H     -1.717000    0.061000    1.108000
C     -0.809000   -0.010000   -1.276000
C     -0.049000    0.046000    2.436000
H     -0.777000   -0.133000    3.221000
H      0.720000   -0.720000    2.476000
H      0.429000    1.010000    2.602000
H     -1.882000   -0.038000   -1.106000
H     -0.515000   -0.876000   -1.863000
H     -0.559000    0.879000   -1.850000
C      2.239800    3.992600    0.797000
C      1.763200    4.049300    2.106600
C      1.944100    5.250600    2.764300
C      2.577500    6.274800    2.062100
Br     2.042100    2.397000   -0.188700
N      2.840500    4.993600    0.158900
N      3.012300    6.156000    0.804000
H      1.284200    3.196800    2.563900
H      1.610100    5.395900    3.781700
H      2.754100    7.242600    2.510400
