22

O      1.224000    0.000000    0.000000
C      0.000000    0.000000    0.000000
N     -0.718000    0.000000    1.154000
H     -1.717000    0.061000    1.108000
C     -0.809000   -0.010000   -1.276000
C     -0.049000    0.046000    2.436000
H     -0.777000   -0.133000    3.221000
H      0.720000   -0.720000    2.476000
H      0.429000    1.010000    2.602000
H     -1.882000   -0.038000   -1.106000
H     -0.515000   -0.876000   -1.863000
H     -0.559000    0.879000   -1.850000
C      4.267000   -2.240400   -2.450900
C      4.061700   -1.838300   -3.770600
C      3.316600   -2.697200   -4.555300
C      2.849500   -3.866600   -3.957300
Br     5.271500   -1.138500   -1.296200
N      3.804000   -3.366600   -1.914900
N      3.082000   -4.194600   -2.682800
H      4.467400   -0.909100   -4.140800
H      3.101700   -2.476400   -5.591100
H      2.260100   -4.586700   -4.507700
