22

O      1.224000    0.000000    0.000000
C      0.000000    0.000000    0.000000
N     -0.718000    0.000000    1.154000
H     -1.717000    0.061000    1.108000
C     -0.809000   -0.010000   -1.276000
C     -0.049000    0.046000    2.436000
H     -0.777000   -0.133000    3.221000
H      0.720000   -0.720000    2.476000
H      0.429000    1.010000    2.602000
H     -1.882000   -0.038000   -1.106000
H     -0.515000   -0.876000   -1.863000
H     -0.559000    0.879000   -1.850000
C      0.054100   -3.921400   -1.356000
C     -1.003400   -4.756300   -1.716700
C     -2.189700   -4.557200   -1.037300
C     -2.211800   -3.553500   -0.070200
Br     1.717600   -4.111800   -2.223800
N     -0.005300   -2.972300   -0.425500
N     -1.160000   -2.785300    0.229100
H     -0.885400   -5.507800   -2.482600
H     -3.067800   -5.152400   -1.243300
H     -3.103700   -3.339200    0.502100
