22

O      1.224000    0.000000    0.000000
C      0.000000    0.000000    0.000000
N     -0.718000    0.000000    1.154000
H     -1.717000    0.061000    1.108000
C     -0.809000   -0.010000   -1.276000
C     -0.049000    0.046000    2.436000
H     -0.777000   -0.133000    3.221000
H      0.720000   -0.720000    2.476000
H      0.429000    1.010000    2.602000
H     -1.882000   -0.038000   -1.106000
H     -0.515000   -0.876000   -1.863000
H     -0.559000    0.879000   -1.850000
C      1.795700   -3.154900   -3.405900
C      2.183300   -4.337600   -4.035600
C      3.487200   -4.738900   -3.818100
C      4.276700   -3.931600   -3.000700
Br     0.035300   -2.519700   -3.638600
N      2.579700   -2.409800   -2.631200
N      3.843500   -2.806000   -2.425100
H      1.493800   -4.893800   -4.652300
H      3.884100   -5.641100   -4.261200
H      5.306400   -4.180800   -2.784700
