22

O      1.224000    0.000000    0.000000
C      0.000000    0.000000    0.000000
N     -0.718000    0.000000    1.154000
H     -1.717000    0.061000    1.108000
C     -0.809000   -0.010000   -1.276000
C     -0.049000    0.046000    2.436000
H     -0.777000   -0.133000    3.221000
H      0.720000   -0.720000    2.476000
H      0.429000    1.010000    2.602000
H     -1.882000   -0.038000   -1.106000
H     -0.515000   -0.876000   -1.863000
H     -0.559000    0.879000   -1.850000
C      0.515400    4.508000    1.077800
C      1.832000    4.941400    0.922700
C      2.022100    6.309800    0.923500
C      0.892400    7.112000    1.077300
Br     0.148300    2.658200    1.090500
N     -0.539300    5.306000    1.222400
N     -0.346500    6.632400    1.222000
H      2.642200    4.237100    0.810100
H      3.004300    6.745800    0.809700
H      0.962200    8.190800    1.087800
