22

O      1.224000    0.000000    0.000000
C      0.000000    0.000000    0.000000
N     -0.718000    0.000000    1.154000
H     -1.717000    0.061000    1.108000
C     -0.809000   -0.010000   -1.276000
C     -0.049000    0.046000    2.436000
H     -0.777000   -0.133000    3.221000
H      0.720000   -0.720000    2.476000
H      0.429000    1.010000    2.602000
H     -1.882000   -0.038000   -1.106000
H     -0.515000   -0.876000   -1.863000
H     -0.559000    0.879000   -1.850000
C      5.454800   -2.122600    0.451900
C      5.731900   -2.078200    1.818100
C      6.853400   -2.771400    2.230300
C      7.588200   -3.438600    1.251400
Br     3.945400   -1.208600   -0.213800
N      6.181400   -2.771800   -0.454000
N      7.268100   -3.442000   -0.046000
H      5.098000   -1.530500    2.498900
H      7.153500   -2.798600    3.268100
H      8.477500   -4.002000    1.497700
