22

O      1.224000    0.000000    0.000000
C      0.000000    0.000000    0.000000
N     -0.718000    0.000000    1.154000
H     -1.717000    0.061000    1.108000
C     -0.809000   -0.010000   -1.276000
C     -0.049000    0.046000    2.436000
H     -0.777000   -0.133000    3.221000
H      0.720000   -0.720000    2.476000
H      0.429000    1.010000    2.602000
H     -1.882000   -0.038000   -1.106000
H     -0.515000   -0.876000   -1.863000
H     -0.559000    0.879000   -1.850000
C      5.039600    2.236400    3.416800
C      5.194200    2.404800    4.792800
C      5.522400    3.679300    5.212700
C      5.664800    4.658900    4.231200
Br     4.591400    0.534100    2.740100
N      5.184100    3.197900    2.508800
N      5.502600    4.431900    2.924300
H      5.061800    1.578700    5.474800
H      5.664100    3.912900    6.258200
H      5.920400    5.678800    4.483100
