22

O      1.224000    0.000000    0.000000
C      0.000000    0.000000    0.000000
N     -0.718000    0.000000    1.154000
H     -1.717000    0.061000    1.108000
C     -0.809000   -0.010000   -1.276000
C     -0.049000    0.046000    2.436000
H     -0.777000   -0.133000    3.221000
H      0.720000   -0.720000    2.476000
H      0.429000    1.010000    2.602000
H     -1.882000   -0.038000   -1.106000
H     -0.515000   -0.876000   -1.863000
H     -0.559000    0.879000   -1.850000
C     -1.049700    2.812200   -3.088200
C     -0.538800    3.920600   -3.763400
C     -0.875100    5.154500   -3.241100
C     -1.682100    5.169200   -2.104500
Br    -0.649300    1.081200   -3.720500
N     -1.818700    2.866200   -2.003800
N     -2.140500    4.067300   -1.503200
H      0.080500    3.804000   -4.639700
H     -0.529300    6.074100   -3.691300
H     -1.986600    6.096400   -1.639200
