22

O      1.224000    0.000000    0.000000
C      0.000000    0.000000    0.000000
N     -0.718000    0.000000    1.154000
H     -1.717000    0.061000    1.108000
C     -0.809000   -0.010000   -1.276000
C     -0.049000    0.046000    2.436000
H     -0.777000   -0.133000    3.221000
H      0.720000   -0.720000    2.476000
H      0.429000    1.010000    2.602000
H     -1.882000   -0.038000   -1.106000
H     -0.515000   -0.876000   -1.863000
H     -0.559000    0.879000   -1.850000
C      3.749900   -1.804100    0.860200
C      3.913300   -2.877200   -0.015700
C      4.966500   -2.777500   -0.904000
C      5.752200   -1.627900   -0.837600
Br     2.341000   -1.842000    2.113300
N      4.522000   -0.721200    0.893600
N      5.541900   -0.632000    0.028400
H      3.248100   -3.726900    0.012000
H      5.177300   -3.556000   -1.623200
H      6.593400   -1.478800   -1.500200
