22

O      1.224000    0.000000    0.000000
C      0.000000    0.000000    0.000000
N     -0.718000    0.000000    1.154000
H     -1.717000    0.061000    1.108000
C     -0.809000   -0.010000   -1.276000
C     -0.049000    0.046000    2.436000
H     -0.777000   -0.133000    3.221000
H      0.720000   -0.720000    2.476000
H      0.429000    1.010000    2.602000
H     -1.882000   -0.038000   -1.106000
H     -0.515000   -0.876000   -1.863000
H     -0.559000    0.879000   -1.850000
C      2.044400   -3.664700    0.215200
C      2.756700   -4.410700    1.154100
C      2.210200   -5.632600    1.495900
C      1.015200   -5.994300    0.875800
Br     2.705500   -1.981400   -0.319700
N      0.904300   -4.044200   -0.356000
N      0.380500   -5.231100   -0.019000
H      3.677900   -4.041200    1.578400
H      2.685500   -6.285300    2.214100
H      0.527900   -6.934800    1.092300
