22

O      1.224000    0.000000    0.000000
C      0.000000    0.000000    0.000000
N     -0.718000    0.000000    1.154000
H     -1.717000    0.061000    1.108000
C     -0.809000   -0.010000   -1.276000
C     -0.049000    0.046000    2.436000
H     -0.777000   -0.133000    3.221000
H      0.720000   -0.720000    2.476000
H      0.429000    1.010000    2.602000
H     -1.882000   -0.038000   -1.106000
H     -0.515000   -0.876000   -1.863000
H     -0.559000    0.879000   -1.850000
C      4.368200    2.638200    2.251600
C      3.267100    3.159200    2.931100
C      3.546200    3.850900    4.093800
C      4.884700    3.958400    4.468200
Br     4.095400    1.676600    0.652400
N      5.634400    2.761700    2.641100
N      5.896800    3.434300    3.770400
H      2.263900    3.021200    2.557300
H      2.762600    4.292800    4.692600
H      5.180500    4.484500    5.365200
