22

O      1.224000    0.000000    0.000000
C      0.000000    0.000000    0.000000
N     -0.718000    0.000000    1.154000
H     -1.717000    0.061000    1.108000
C     -0.809000   -0.010000   -1.276000
C     -0.049000    0.046000    2.436000
H     -0.777000   -0.133000    3.221000
H      0.720000   -0.720000    2.476000
H      0.429000    1.010000    2.602000
H     -1.882000   -0.038000   -1.106000
H     -0.515000   -0.876000   -1.863000
H     -0.559000    0.879000   -1.850000
C      1.808500   -1.572600   -2.355000
C      0.989100   -0.703200   -3.074700
C      1.168800    0.643400   -2.824200
C      2.139800    0.995500   -1.888000
Br     1.642400   -3.431900   -2.623500
N      2.726200   -1.198100   -1.467500
N      2.894500    0.110300   -1.230100
H      0.263200   -1.076300   -3.781200
H      0.583200    1.397400   -3.330600
H      2.337300    2.029000   -1.639500
