22

O      1.224000    0.000000    0.000000
C      0.000000    0.000000    0.000000
N     -0.718000    0.000000    1.154000
H     -1.717000    0.061000    1.108000
C     -0.809000   -0.010000   -1.276000
C     -0.049000    0.046000    2.436000
H     -0.777000   -0.133000    3.221000
H      0.720000   -0.720000    2.476000
H      0.429000    1.010000    2.602000
H     -1.882000   -0.038000   -1.106000
H     -0.515000   -0.876000   -1.863000
H     -0.559000    0.879000   -1.850000
C      3.143900    0.900400   -3.248100
C      2.081600   -0.002300   -3.204300
C      1.041900    0.244700   -4.079700
C      1.156300    1.358600   -4.910100
Br     4.613800    0.652500   -2.092800
N      3.217500    1.954500   -4.056500
N      2.204600    2.187400   -4.902900
H      2.087100   -0.838400   -2.521600
H      0.172800   -0.396100   -4.123100
H      0.383300    1.615900   -5.620800
