22

O      1.224000    0.000000    0.000000
C      0.000000    0.000000    0.000000
N     -0.718000    0.000000    1.154000
H     -1.717000    0.061000    1.108000
C     -0.809000   -0.010000   -1.276000
C     -0.049000    0.046000    2.436000
H     -0.777000   -0.133000    3.221000
H      0.720000   -0.720000    2.476000
H      0.429000    1.010000    2.602000
H     -1.882000   -0.038000   -1.106000
H     -0.515000   -0.876000   -1.863000
H     -0.559000    0.879000   -1.850000
C      5.009700   -3.342600    0.572700
C      6.011900   -3.013800    1.485400
C      6.925800   -4.011300    1.765000
C      6.757800   -5.232900    1.114800
Br     3.711600   -2.050800    0.122400
N      4.881600   -4.522400   -0.028800
N      5.772500   -5.485000    0.247900
H      6.056400   -2.034400    1.937000
H      7.739900   -3.856200    2.458600
H      7.433000   -6.060400    1.282800
