22

O      1.224000    0.000000    0.000000
C      0.000000    0.000000    0.000000
N     -0.718000    0.000000    1.154000
H     -1.717000    0.061000    1.108000
C     -0.809000   -0.010000   -1.276000
C     -0.049000    0.046000    2.436000
H     -0.777000   -0.133000    3.221000
H      0.720000   -0.720000    2.476000
H      0.429000    1.010000    2.602000
H     -1.882000   -0.038000   -1.106000
H     -0.515000   -0.876000   -1.863000
H     -0.559000    0.879000   -1.850000
C      2.567400   -2.631400    4.715200
C      3.585900   -1.678600    4.695200
C      3.876300   -1.078800    5.905300
C      3.131400   -1.480500    7.013000
Br     2.093500   -3.509200    3.114700
N      1.877300   -2.989100    5.794900
N      2.165200   -2.402400    6.965200
H      4.105900   -1.436200    3.780900
H      4.648500   -0.328100    5.995100
H      3.301400   -1.056200    7.992800
