22

O      1.224000    0.000000    0.000000
C      0.000000    0.000000    0.000000
N     -0.718000    0.000000    1.154000
H     -1.717000    0.061000    1.108000
C     -0.809000   -0.010000   -1.276000
C     -0.049000    0.046000    2.436000
H     -0.777000   -0.133000    3.221000
H      0.720000   -0.720000    2.476000
H      0.429000    1.010000    2.602000
H     -1.882000   -0.038000   -1.106000
H     -0.515000   -0.876000   -1.863000
H     -0.559000    0.879000   -1.850000
C      5.592000   -3.284600    0.902400
C      6.759600   -3.902600    1.350000
C      6.654100   -5.246000    1.654200
C      5.405900   -5.843500    1.485700
Br     5.629300   -1.451600    0.460300
N      4.416400   -3.889500    0.754000
N      4.322200   -5.193100    1.051300
H      7.681800   -3.350100    1.447200
H      7.501400   -5.815300    2.008800
H      5.246200   -6.890400    1.703200
