22

O      1.224000    0.000000    0.000000
C      0.000000    0.000000    0.000000
N     -0.718000    0.000000    1.154000
H     -1.717000    0.061000    1.108000
C     -0.809000   -0.010000   -1.276000
C     -0.049000    0.046000    2.436000
H     -0.777000   -0.133000    3.221000
H      0.720000   -0.720000    2.476000
H      0.429000    1.010000    2.602000
H     -1.882000   -0.038000   -1.106000
H     -0.515000   -0.876000   -1.863000
H     -0.559000    0.879000   -1.850000
C      0.054000   -3.542000    3.640400
C      1.350900   -3.733200    3.164000
C      1.640700   -4.998300    2.690700
C      0.620300   -5.947000    2.735800
Br    -0.443500   -1.850200    4.308800
N     -0.894900   -4.474200    3.667400
N     -0.605700   -5.699200    3.206400
H      2.072600   -2.930500    3.171600
H      2.617000   -5.247800    2.300400
H      0.772000   -6.957900    2.383500
