22

O      1.224000    0.000000    0.000000
C      0.000000    0.000000    0.000000
N     -0.718000    0.000000    1.154000
H     -1.717000    0.061000    1.108000
C     -0.809000   -0.010000   -1.276000
C     -0.049000    0.046000    2.436000
H     -0.777000   -0.133000    3.221000
H      0.720000   -0.720000    2.476000
H      0.429000    1.010000    2.602000
H     -1.882000   -0.038000   -1.106000
H     -0.515000   -0.876000   -1.863000
H     -0.559000    0.879000   -1.850000
C      4.323500   -0.450500   -0.172700
C      3.326400   -0.946300   -1.012500
C      3.200000   -2.321300   -1.054800
C      4.071300   -3.068000   -0.263200
Br     4.578300    1.413600   -0.043100
N      5.137700   -1.196500    0.569400
N      5.008700   -2.529900    0.522800
H      2.699700   -0.282000   -1.588100
H      2.457700   -2.803700   -1.674500
H      4.032700   -4.148300   -0.243800
