22

O      1.224000    0.000000    0.000000
C      0.000000    0.000000    0.000000
N     -0.718000    0.000000    1.154000
H     -1.717000    0.061000    1.108000
C     -0.809000   -0.010000   -1.276000
C     -0.049000    0.046000    2.436000
H     -0.777000   -0.133000    3.221000
H      0.720000   -0.720000    2.476000
H      0.429000    1.010000    2.602000
H     -1.882000   -0.038000   -1.106000
H     -0.515000   -0.876000   -1.863000
H     -0.559000    0.879000   -1.850000
C      5.465500    0.556000    1.210900
C      6.662000    0.248500    1.858300
C      7.122300   -1.043900    1.696000
C      6.354300   -1.902100    0.910600
Br     4.751000    2.294200    1.369000
N      4.759200   -0.292100    0.468000
N      5.212500   -1.544200    0.315400
H      7.184400    0.987300    2.446800
H      8.039800   -1.381100    2.156800
H      6.650300   -2.927600    0.738100
