22

O      1.224000    0.000000    0.000000
C      0.000000    0.000000    0.000000
N     -0.718000    0.000000    1.154000
H     -1.717000    0.061000    1.108000
C     -0.809000   -0.010000   -1.276000
C     -0.049000    0.046000    2.436000
H     -0.777000   -0.133000    3.221000
H      0.720000   -0.720000    2.476000
H      0.429000    1.010000    2.602000
H     -1.882000   -0.038000   -1.106000
H     -0.515000   -0.876000   -1.863000
H     -0.559000    0.879000   -1.850000
C      1.041200    4.243100    2.055600
C      0.483900    3.933700    3.296200
C     -0.227200    4.947100    3.909100
C     -0.316100    6.164000    3.234900
Br     2.031600    2.928400    1.135100
N      0.934500    5.418900    1.442300
N      0.242900    6.397100    2.043600
H      0.610000    2.956400    3.736900
H     -0.697400    4.807700    4.872100
H     -0.855600    7.003200    3.651500
