22

O      1.224000    0.000000    0.000000
C      0.000000    0.000000    0.000000
N     -0.718000    0.000000    1.154000
H     -1.717000    0.061000    1.108000
C     -0.809000   -0.010000   -1.276000
C     -0.049000    0.046000    2.436000
H     -0.777000   -0.133000    3.221000
H      0.720000   -0.720000    2.476000
H      0.429000    1.010000    2.602000
H     -1.882000   -0.038000   -1.106000
H     -0.515000   -0.876000   -1.863000
H     -0.559000    0.879000   -1.850000
C      4.351000   -1.152400   -2.808900
C      4.111300   -1.769900   -4.036400
C      4.171800   -3.150000   -4.040900
C      4.463000   -3.781100   -2.832500
Br     4.291900    0.729100   -2.695300
N      4.626500   -1.790100   -1.674200
N      4.683400   -3.129200   -1.686900
H      3.893000   -1.189800   -4.920100
H      4.001200   -3.722100   -4.941700
H      4.527300   -4.857800   -2.757900
