22

O      1.224000    0.000000    0.000000
C      0.000000    0.000000    0.000000
N     -0.718000    0.000000    1.154000
H     -1.717000    0.061000    1.108000
C     -0.809000   -0.010000   -1.276000
C     -0.049000    0.046000    2.436000
H     -0.777000   -0.133000    3.221000
H      0.720000   -0.720000    2.476000
H      0.429000    1.010000    2.602000
H     -1.882000   -0.038000   -1.106000
H     -0.515000   -0.876000   -1.863000
H     -0.559000    0.879000   -1.850000
C      1.805800    1.223600   -3.995300
C      2.729900    0.715400   -3.082500
C      3.301200   -0.498300   -3.412800
C      2.902000   -1.087500   -4.611400
Br     0.968400    2.875200   -3.638000
N      1.449600    0.630700   -5.131700
N      2.008500   -0.546700   -5.445000
H      2.972900    1.250700   -2.177100
H      4.028300   -0.975900   -2.771700
H      3.305100   -2.036600   -4.936700
