22

O      1.224000    0.000000    0.000000
C      0.000000    0.000000    0.000000
N     -0.718000    0.000000    1.154000
H     -1.717000    0.061000    1.108000
C     -0.809000   -0.010000   -1.276000
C     -0.049000    0.046000    2.436000
H     -0.777000   -0.133000    3.221000
H      0.720000   -0.720000    2.476000
H      0.429000    1.010000    2.602000
H     -1.882000   -0.038000   -1.106000
H     -0.515000   -0.876000   -1.863000
H     -0.559000    0.879000   -1.850000
C      4.043700    3.474300   -2.956800
C      2.768400    3.968400   -3.230500
C      2.560400    4.425100   -4.517500
C      3.633000    4.347700   -5.404500
Br     4.431100    2.826300   -1.228600
N      5.044300    3.416600   -3.831700
N      4.834400    3.861700   -5.078500
H      2.001500    3.985800   -2.471100
H      1.606900    4.826900   -4.829400
H      3.546100    4.685500   -6.427900
