22

O      1.224000    0.000000    0.000000
C      0.000000    0.000000    0.000000
N     -0.718000    0.000000    1.154000
H     -1.717000    0.061000    1.108000
C     -0.809000   -0.010000   -1.276000
C     -0.049000    0.046000    2.436000
H     -0.777000   -0.133000    3.221000
H      0.720000   -0.720000    2.476000
H      0.429000    1.010000    2.602000
H     -1.882000   -0.038000   -1.106000
H     -0.515000   -0.876000   -1.863000
H     -0.559000    0.879000   -1.850000
C      4.831500    0.364100   -1.666600
C      3.763000   -0.207900   -0.976300
C      3.518800   -1.542100   -1.238400
C      4.354700   -2.176700   -2.156000
Br     5.248600    2.180900   -1.380100
N      5.608500   -0.275300   -2.536900
N      5.365100   -1.569700   -2.785700
H      3.172500    0.370900   -0.282500
H      2.714000   -2.076900   -0.754600
H      4.225300   -3.219100   -2.411900
