22

O      1.224000    0.000000    0.000000
C      0.000000    0.000000    0.000000
N     -0.718000    0.000000    1.154000
H     -1.717000    0.061000    1.108000
C     -0.809000   -0.010000   -1.276000
C     -0.049000    0.046000    2.436000
H     -0.777000   -0.133000    3.221000
H      0.720000   -0.720000    2.476000
H      0.429000    1.010000    2.602000
H     -1.882000   -0.038000   -1.106000
H     -0.515000   -0.876000   -1.863000
H     -0.559000    0.879000   -1.850000
C      5.143300   -3.103600   -1.721000
C      6.076100   -2.347100   -2.430200
C      7.275600   -2.109100   -1.787600
C      7.432700   -2.642200   -0.509100
Br     3.473300   -3.485200   -2.509700
N      5.330000   -3.596600   -0.499400
N      6.496500   -3.361100    0.117400
H      5.858200   -1.977500   -3.420700
H      8.063400   -1.533600   -2.252300
H      8.343200   -2.497900    0.055700
