22

O      1.224000    0.000000    0.000000
C      0.000000    0.000000    0.000000
N     -0.718000    0.000000    1.154000
H     -1.717000    0.061000    1.108000
C     -0.809000   -0.010000   -1.276000
C     -0.049000    0.046000    2.436000
H     -0.777000   -0.133000    3.221000
H      0.720000   -0.720000    2.476000
H      0.429000    1.010000    2.602000
H     -1.882000   -0.038000   -1.106000
H     -0.515000   -0.876000   -1.863000
H     -0.559000    0.879000   -1.850000
C      0.504300    2.853900   -4.959400
C      0.034700    4.140300   -5.224200
C     -0.214500    4.431500   -6.551500
C      0.025200    3.422700   -7.483200
Br     0.875500    2.355500   -3.178800
N      0.721300    1.916000   -5.877700
N      0.477000    2.206400   -7.163200
H     -0.119300    4.853400   -4.428600
H     -0.580500    5.400200   -6.860400
H     -0.146500    3.576200   -8.539600
