22

O      1.224000    0.000000    0.000000
C      0.000000    0.000000    0.000000
N     -0.718000    0.000000    1.154000
H     -1.717000    0.061000    1.108000
C     -0.809000   -0.010000   -1.276000
C     -0.049000    0.046000    2.436000
H     -0.777000   -0.133000    3.221000
H      0.720000   -0.720000    2.476000
H      0.429000    1.010000    2.602000
H     -1.882000   -0.038000   -1.106000
H     -0.515000   -0.876000   -1.863000
H     -0.559000    0.879000   -1.850000
C      2.437500    1.336000   -2.916100
C      3.670300    1.786100   -3.388200
C      4.138400    1.174500   -4.535000
C      3.341600    0.179900   -5.099900
Br     1.709500    2.106300   -1.356200
N      1.704300    0.382000   -3.484000
N      2.165500   -0.206500   -4.596500
H      4.213200    2.566200   -2.876400
H      5.083200    1.451800   -4.980300
H      3.641500   -0.343400   -5.997200
