22

O      1.224000    0.000000    0.000000
C      0.000000    0.000000    0.000000
N     -0.718000    0.000000    1.154000
H     -1.717000    0.061000    1.108000
C     -0.809000   -0.010000   -1.276000
C     -0.049000    0.046000    2.436000
H     -0.777000   -0.133000    3.221000
H      0.720000   -0.720000    2.476000
H      0.429000    1.010000    2.602000
H     -1.882000   -0.038000   -1.106000
H     -0.515000   -0.876000   -1.863000
H     -0.559000    0.879000   -1.850000
C     -1.390500    4.432000    1.878900
C     -2.560200    3.680100    1.987700
C     -3.455000    4.090900    2.956700
C     -3.104100    5.203100    3.720500
Br    -0.103100    3.953900    0.586300
N     -1.090200    5.489900    2.627700
N     -1.963600    5.882200    3.565700
H     -2.740100    2.831100    1.345800
H     -4.390200    3.574900    3.120300
H     -3.753200    5.583300    4.497100
