22

O      1.224000    0.000000    0.000000
C      0.000000    0.000000    0.000000
N     -0.718000    0.000000    1.154000
H     -1.717000    0.061000    1.108000
C     -0.809000   -0.010000   -1.276000
C     -0.049000    0.046000    2.436000
H     -0.777000   -0.133000    3.221000
H      0.720000   -0.720000    2.476000
H      0.429000    1.010000    2.602000
H     -1.882000   -0.038000   -1.106000
H     -0.515000   -0.876000   -1.863000
H     -0.559000    0.879000   -1.850000
C      4.296500   -0.344300   -4.042500
C      4.091400   -1.702000   -4.287300
C      5.229400   -2.482100   -4.358500
C      6.455100   -1.842300   -4.180700
Br     2.807800    0.807700   -3.926800
N      5.484700    0.231100   -3.877900
N      6.584000   -0.532600   -3.948400
H      3.097000   -2.103100   -4.411200
H      5.177200   -3.545300   -4.544200
H      7.388300   -2.386600   -4.222700
