
     RDKit          3D

 34 34  0  0  0  0  0  0  0  0999 V2000
    5.5720   12.9300   14.6610 C   0  0  2  0  0  0  0  0  0  0  0  0
    4.1960   12.4790   14.8830 N   0  0  0  0  0  0  0  0  0  0  0  0
    3.2660   13.1390   15.5920 C   0  0  0  0  0  0  0  0  0  0  0  0
    3.4710   14.1890   16.2050 O   0  0  0  0  0  0  0  0  0  0  0  0
    2.0890   12.4920   15.5690 N   0  0  0  0  0  0  0  0  0  0  0  0
    0.9270   12.7540   16.4440 C   0  0  1  0  0  0  0  0  0  0  0  0
    0.0580   13.9130   15.8750 C   0  0  0  0  0  0  0  0  0  0  0  0
    0.0690   11.4590   16.7450 C   0  0  0  0  0  0  0  0  0  0  0  0
    0.5470   10.4070   16.2620 O   0  0  0  0  0  0  0  0  0  0  0  0
   -0.9790   11.5880   17.4250 O   0  0  0  0  0  0  0  0  0  0  0  0
    6.2220   13.2270   16.0270 C   0  0  0  0  0  0  0  0  0  0  0  0
    6.9270   12.3750   16.5740 O   0  0  0  0  0  0  0  0  0  0  0  0
    5.9770   14.4430   16.5390 N   0  0  0  0  0  0  0  0  0  0  0  0
    6.5320   14.9560   17.7950 C   0  0  2  0  0  0  0  0  0  0  0  0
    5.4140   15.0610   18.8580 C   0  0  0  0  0  0  0  0  0  0  0  0
    5.3750   14.2440   19.7830 O   0  0  0  0  0  0  0  0  0  0  0  0
    4.5180   16.0470   18.6540 N   0  0  0  0  0  0  0  0  0  0  0  0
    3.4330   16.2980   19.4310 C   0  0  0  0  0  0  0  0  0  0  0  0
    2.9680   17.5290   19.6980 C   0  0  2  0  0  0  0  0  0  0  0  0
    2.3830   18.1000   20.9690 C   0  0  0  0  0  0  0  0  0  0  0  0
    1.3100   18.9980   20.3860 C   0  0  1  0  0  0  0  0  0  0  0  0
    0.8580   20.0550   21.2080 O   0  0  0  0  0  0  0  0  0  0  0  0
    2.0680   19.5210   19.1690 C   0  0  1  0  0  0  0  0  0  0  0  0
    2.9020   18.4860   18.7370 O   0  0  0  0  0  0  0  0  0  0  0  0
    7.2690   16.3160   17.5700 C   0  0  1  0  0  0  0  0  0  0  0  0
    8.8080   16.2220   17.7140 C   0  0  0  0  0  0  0  0  0  0  0  0
    6.9080   16.9680   16.2820 N   0  0  0  0  0  0  0  0  0  0  0  0
    7.9620   16.9470   15.2540 C   0  0  0  0  0  0  0  0  0  0  0  0
    5.6640   17.4930   16.0710 C   0  0  0  0  0  0  0  0  0  0  0  0
    4.6540   16.7840   16.0960 O   0  0  0  0  0  0  0  0  0  0  0  0
    0.8770   15.0010   15.1830 R#  0  0  0  0  0  0  0  0  0  1  0  0
    5.5810   14.1610   13.7210 R#  0  0  0  0  0  0  0  0  0  4  0  0
    1.3150   20.1090   18.0660 R#  0  0  0  0  0  0  0  0  0  2  0  0
    5.4870   19.0160   15.8030 R#  0  0  0  0  0  0  0  0  0  3  0  0
  1  2  1  0
  1 11  1  0
  2  3  1  0
  3  4  2  0
  3  5  1  0
  6  5  1  6
  6  7  1  0
  6  8  1  0
  8  9  2  0
  8 10  1  0
 11 12  2  0
 11 13  1  0
 14 13  1  6
 14 15  1  0
 14 25  1  0
 15 16  2  0
 15 17  1  0
 17 18  1  0
 18 19  2  0
 20 19  1  6
 19 24  1  6
 20 21  1  0
 21 22  1  1
 21 23  1  0
 23 24  1  0
 26 25  1  6
 25 27  1  6
 28 27  1  6
 27 29  1  0
 29 30  2  0
  7 31  1  1
  1 32  1  6
 23 33  1  6
 29 34  1  0
M  CHG  1  10  -1
M  RGP  4  31   1  32   4  33   2  34   3
M  END
$$$$

     RDKit          3D

 34 34  0  0  0  0  0  0  0  0999 V2000
    5.5720   12.9300   14.6610 C   0  0  2  0  0  0  0  0  0  0  0  0
    4.1960   12.4790   14.8830 N   0  0  0  0  0  0  0  0  0  0  0  0
    3.2660   13.1390   15.5920 C   0  0  0  0  0  0  0  0  0  0  0  0
    3.4710   14.1890   16.2050 O   0  0  0  0  0  0  0  0  0  0  0  0
    2.0890   12.4920   15.5690 N   0  0  0  0  0  0  0  0  0  0  0  0
    0.9270   12.7540   16.4440 C   0  0  1  0  0  0  0  0  0  0  0  0
    0.0580   13.9130   15.8750 C   0  0  0  0  0  0  0  0  0  0  0  0
    0.0690   11.4590   16.7450 C   0  0  0  0  0  0  0  0  0  0  0  0
    0.5470   10.4070   16.2620 O   0  0  0  0  0  0  0  0  0  0  0  0
   -0.9790   11.5880   17.4250 O   0  0  0  0  0  0  0  0  0  0  0  0
    6.2220   13.2270   16.0270 C   0  0  0  0  0  0  0  0  0  0  0  0
    6.9270   12.3750   16.5740 O   0  0  0  0  0  0  0  0  0  0  0  0
    5.9770   14.4430   16.5390 N   0  0  0  0  0  0  0  0  0  0  0  0
    6.5320   14.9560   17.7950 C   0  0  2  0  0  0  0  0  0  0  0  0
    5.4140   15.0610   18.8580 C   0  0  0  0  0  0  0  0  0  0  0  0
    5.3750   14.2440   19.7830 O   0  0  0  0  0  0  0  0  0  0  0  0
    4.5180   16.0470   18.6540 N   0  0  0  0  0  0  0  0  0  0  0  0
    3.4330   16.2980   19.4310 C   0  0  0  0  0  0  0  0  0  0  0  0
    2.9680   17.5290   19.6980 C   0  0  2  0  0  0  0  0  0  0  0  0
    2.3830   18.1000   20.9690 C   0  0  0  0  0  0  0  0  0  0  0  0
    1.3100   18.9980   20.3860 C   0  0  1  0  0  0  0  0  0  0  0  0
    0.8580   20.0550   21.2080 O   0  0  0  0  0  0  0  0  0  0  0  0
    2.0680   19.5210   19.1690 C   0  0  1  0  0  0  0  0  0  0  0  0
    2.9020   18.4860   18.7370 O   0  0  0  0  0  0  0  0  0  0  0  0
    7.2690   16.3160   17.5700 C   0  0  1  0  0  0  0  0  0  0  0  0
    8.8080   16.2220   17.7140 C   0  0  0  0  0  0  0  0  0  0  0  0
    6.9080   16.9680   16.2820 N   0  0  0  0  0  0  0  0  0  0  0  0
    7.9620   16.9470   15.2540 C   0  0  0  0  0  0  0  0  0  0  0  0
    5.6640   17.4930   16.0710 C   0  0  0  0  0  0  0  0  0  0  0  0
    4.6540   16.7840   16.0960 O   0  0  0  0  0  0  0  0  0  0  0  0
    0.8770   15.0010   15.1830 R#  0  0  0  0  0  0  0  0  0  1  0  0
    5.5810   14.1610   13.7210 R#  0  0  0  0  0  0  0  0  0  4  0  0
    1.3150   20.1090   18.0660 R#  0  0  0  0  0  0  0  0  0  2  0  0
    5.4870   19.0160   15.8030 R#  0  0  0  0  0  0  0  0  0  3  0  0
  1  2  1  0
  1 11  1  0
  2  3  1  0
  3  4  2  0
  3  5  1  0
  6  5  1  6
  6  7  1  0
  6  8  1  0
  8  9  2  0
  8 10  1  0
 11 12  2  0
 11 13  1  0
 14 13  1  6
 14 15  1  0
 14 25  1  0
 15 16  2  0
 15 17  1  0
 17 18  1  0
 18 19  2  0
 20 19  1  6
 19 24  1  6
 20 21  1  0
 21 22  1  1
 21 23  1  0
 23 24  1  0
 26 25  1  6
 25 27  1  6
 28 27  1  6
 27 29  1  0
 29 30  2  0
  7 31  1  1
  1 32  1  6
 23 33  1  6
 29 34  1  0
M  CHG  1  10  -1
M  RGP  4  31   1  32   4  33   2  34   3
M  END
$$$$

     RDKit          3D

 34 34  0  0  0  0  0  0  0  0999 V2000
    5.5720   12.9300   14.6610 C   0  0  2  0  0  0  0  0  0  0  0  0
    4.1960   12.4790   14.8830 N   0  0  0  0  0  0  0  0  0  0  0  0
    3.2660   13.1390   15.5920 C   0  0  0  0  0  0  0  0  0  0  0  0
    3.4710   14.1890   16.2050 O   0  0  0  0  0  0  0  0  0  0  0  0
    2.0890   12.4920   15.5690 N   0  0  0  0  0  0  0  0  0  0  0  0
    0.9270   12.7540   16.4440 C   0  0  1  0  0  0  0  0  0  0  0  0
    0.0580   13.9130   15.8750 C   0  0  0  0  0  0  0  0  0  0  0  0
    0.0690   11.4590   16.7450 C   0  0  0  0  0  0  0  0  0  0  0  0
    0.5470   10.4070   16.2620 O   0  0  0  0  0  0  0  0  0  0  0  0
   -0.9790   11.5880   17.4250 O   0  0  0  0  0  0  0  0  0  0  0  0
    6.2220   13.2270   16.0270 C   0  0  0  0  0  0  0  0  0  0  0  0
    6.9270   12.3750   16.5740 O   0  0  0  0  0  0  0  0  0  0  0  0
    5.9770   14.4430   16.5390 N   0  0  0  0  0  0  0  0  0  0  0  0
    6.5320   14.9560   17.7950 C   0  0  2  0  0  0  0  0  0  0  0  0
    5.4140   15.0610   18.8580 C   0  0  0  0  0  0  0  0  0  0  0  0
    5.3750   14.2440   19.7830 O   0  0  0  0  0  0  0  0  0  0  0  0
    4.5180   16.0470   18.6540 N   0  0  0  0  0  0  0  0  0  0  0  0
    3.4330   16.2980   19.4310 C   0  0  0  0  0  0  0  0  0  0  0  0
    2.9680   17.5290   19.6980 C   0  0  2  0  0  0  0  0  0  0  0  0
    2.3830   18.1000   20.9690 C   0  0  0  0  0  0  0  0  0  0  0  0
    1.3100   18.9980   20.3860 C   0  0  1  0  0  0  0  0  0  0  0  0
    0.8580   20.0550   21.2080 O   0  0  0  0  0  0  0  0  0  0  0  0
    2.0680   19.5210   19.1690 C   0  0  1  0  0  0  0  0  0  0  0  0
    2.9020   18.4860   18.7370 O   0  0  0  0  0  0  0  0  0  0  0  0
    7.2690   16.3160   17.5700 C   0  0  1  0  0  0  0  0  0  0  0  0
    8.8080   16.2220   17.7140 C   0  0  0  0  0  0  0  0  0  0  0  0
    6.9080   16.9680   16.2820 N   0  0  0  0  0  0  0  0  0  0  0  0
    7.9620   16.9470   15.2540 C   0  0  0  0  0  0  0  0  0  0  0  0
    5.6640   17.4930   16.0710 C   0  0  0  0  0  0  0  0  0  0  0  0
    4.6540   16.7840   16.0960 O   0  0  0  0  0  0  0  0  0  0  0  0
    0.8770   15.0010   15.1830 R#  0  0  0  0  0  0  0  0  0  1  0  0
    5.5810   14.1610   13.7210 R#  0  0  0  0  0  0  0  0  0  4  0  0
    1.3150   20.1090   18.0660 R#  0  0  0  0  0  0  0  0  0  2  0  0
    5.4870   19.0160   15.8030 R#  0  0  0  0  0  0  0  0  0  3  0  0
  1  2  1  0
  1 11  1  0
  2  3  1  0
  3  4  2  0
  3  5  1  0
  6  5  1  6
  6  7  1  0
  6  8  1  0
  8  9  2  0
  8 10  1  0
 11 12  2  0
 11 13  1  0
 14 13  1  6
 14 15  1  0
 14 25  1  0
 15 16  2  0
 15 17  1  0
 17 18  1  0
 18 19  2  0
 20 19  1  6
 19 24  1  6
 20 21  1  0
 21 22  1  1
 21 23  1  0
 23 24  1  0
 26 25  1  6
 25 27  1  6
 28 27  1  6
 27 29  1  0
 29 30  2  0
  7 31  1  1
  1 32  1  6
 23 33  1  6
 29 34  1  0
M  CHG  1  10  -1
M  RGP  4  31   1  32   4  33   2  34   3
M  END
$$$$

     RDKit          3D

 34 34  0  0  0  0  0  0  0  0999 V2000
    5.5720   12.9300   14.6610 C   0  0  2  0  0  0  0  0  0  0  0  0
    4.1960   12.4790   14.8830 N   0  0  0  0  0  0  0  0  0  0  0  0
    3.2660   13.1390   15.5920 C   0  0  0  0  0  0  0  0  0  0  0  0
    3.4710   14.1890   16.2050 O   0  0  0  0  0  0  0  0  0  0  0  0
    2.0890   12.4920   15.5690 N   0  0  0  0  0  0  0  0  0  0  0  0
    0.9270   12.7540   16.4440 C   0  0  1  0  0  0  0  0  0  0  0  0
    0.0580   13.9130   15.8750 C   0  0  0  0  0  0  0  0  0  0  0  0
    0.0690   11.4590   16.7450 C   0  0  0  0  0  0  0  0  0  0  0  0
    0.5470   10.4070   16.2620 O   0  0  0  0  0  0  0  0  0  0  0  0
   -0.9790   11.5880   17.4250 O   0  0  0  0  0  0  0  0  0  0  0  0
    6.2220   13.2270   16.0270 C   0  0  0  0  0  0  0  0  0  0  0  0
    6.9270   12.3750   16.5740 O   0  0  0  0  0  0  0  0  0  0  0  0
    5.9770   14.4430   16.5390 N   0  0  0  0  0  0  0  0  0  0  0  0
    6.5320   14.9560   17.7950 C   0  0  2  0  0  0  0  0  0  0  0  0
    5.4140   15.0610   18.8580 C   0  0  0  0  0  0  0  0  0  0  0  0
    5.3750   14.2440   19.7830 O   0  0  0  0  0  0  0  0  0  0  0  0
    4.5180   16.0470   18.6540 N   0  0  0  0  0  0  0  0  0  0  0  0
    3.4330   16.2980   19.4310 C   0  0  0  0  0  0  0  0  0  0  0  0
    2.9680   17.5290   19.6980 C   0  0  2  0  0  0  0  0  0  0  0  0
    2.3830   18.1000   20.9690 C   0  0  0  0  0  0  0  0  0  0  0  0
    1.3100   18.9980   20.3860 C   0  0  1  0  0  0  0  0  0  0  0  0
    0.8580   20.0550   21.2080 O   0  0  0  0  0  0  0  0  0  0  0  0
    2.0680   19.5210   19.1690 C   0  0  1  0  0  0  0  0  0  0  0  0
    2.9020   18.4860   18.7370 O   0  0  0  0  0  0  0  0  0  0  0  0
    7.2690   16.3160   17.5700 C   0  0  1  0  0  0  0  0  0  0  0  0
    8.8080   16.2220   17.7140 C   0  0  0  0  0  0  0  0  0  0  0  0
    6.9080   16.9680   16.2820 N   0  0  0  0  0  0  0  0  0  0  0  0
    7.9620   16.9470   15.2540 C   0  0  0  0  0  0  0  0  0  0  0  0
    5.6640   17.4930   16.0710 C   0  0  0  0  0  0  0  0  0  0  0  0
    4.6540   16.7840   16.0960 O   0  0  0  0  0  0  0  0  0  0  0  0
    0.8770   15.0010   15.1830 R#  0  0  0  0  0  0  0  0  0  1  0  0
    5.5810   14.1610   13.7210 R#  0  0  0  0  0  0  0  0  0  4  0  0
    1.3150   20.1090   18.0660 R#  0  0  0  0  0  0  0  0  0  2  0  0
    5.4870   19.0160   15.8030 R#  0  0  0  0  0  0  0  0  0  3  0  0
  1  2  1  0
  1 11  1  0
  2  3  1  0
  3  4  2  0
  3  5  1  0
  6  5  1  6
  6  7  1  0
  6  8  1  0
  8  9  2  0
  8 10  1  0
 11 12  2  0
 11 13  1  0
 14 13  1  6
 14 15  1  0
 14 25  1  0
 15 16  2  0
 15 17  1  0
 17 18  1  0
 18 19  2  0
 20 19  1  6
 19 24  1  6
 20 21  1  0
 21 22  1  1
 21 23  1  0
 23 24  1  0
 26 25  1  6
 25 27  1  6
 28 27  1  6
 27 29  1  0
 29 30  2  0
  7 31  1  1
  1 32  1  6
 23 33  1  6
 29 34  1  0
M  CHG  1  10  -1
M  RGP  4  31   1  32   4  33   2  34   3
M  END
$$$$
