22

O      1.225500   -0.000000   -0.000000
C      0.000000   -0.000000   -0.000000
N     -0.713000    0.000000    1.154400
H     -1.712600    0.063700    1.111800
C     -0.806800   -0.008800   -1.275400
C     -0.038900    0.050500    2.435000
H     -0.754300   -0.173300    3.220300
H      0.760300   -0.685200    2.452100
H      0.401600    1.029800    2.616000
H     -1.879900   -0.053500   -1.105800
H     -0.500400   -0.864800   -1.870900
H     -0.569100    0.889100   -1.840600
C     -0.191900    4.805700    2.659700
C      0.824500    5.707400    2.344600
C      0.975100    6.774700    3.208600
C      0.106500    6.843800    4.296700
Br    -0.480400    3.313300    1.543400
N     -1.002800    4.905400    3.709800
N     -0.850200    5.943900    4.543300
H      1.447100    5.565200    1.474400
H      1.733700    7.528300    3.052000
H      0.163400    7.649500    5.015400
