22

O      1.225500   -0.000000   -0.000000
C      0.000000   -0.000000   -0.000000
N     -0.713000    0.000000    1.154400
H     -1.712600    0.063700    1.111800
C     -0.806800   -0.008800   -1.275400
C     -0.038900    0.050500    2.435000
H     -0.754300   -0.173300    3.220300
H      0.760300   -0.685200    2.452100
H      0.401600    1.029800    2.616000
H     -1.879900   -0.053500   -1.105800
H     -0.500400   -0.864800   -1.870900
H     -0.569100    0.889100   -1.840600
C      2.347200   -1.746700   -5.055900
C      2.633900   -0.772100   -6.011600
C      3.460800   -1.164800   -7.046200
C      3.921100   -2.480600   -7.032500
Br     1.227200   -1.312200   -3.602100
N      2.806500   -2.995200   -5.076600
N      3.608300   -3.368400   -6.083900
H      2.226200    0.224200   -5.932900
H      3.742500   -0.483900   -7.836600
H      4.571500   -2.860200   -7.808200
