22

O      1.225500   -0.000000   -0.000000
C      0.000000   -0.000000   -0.000000
N     -0.713000    0.000000    1.154400
H     -1.712600    0.063700    1.111800
C     -0.806800   -0.008800   -1.275400
C     -0.038900    0.050500    2.435000
H     -0.754300   -0.173300    3.220300
H      0.760300   -0.685200    2.452100
H      0.401600    1.029800    2.616000
H     -1.879900   -0.053500   -1.105800
H     -0.500400   -0.864800   -1.870900
H     -0.569100    0.889100   -1.840600
C      4.338700    3.347200    0.947900
C      5.158100    3.740700   -0.110000
C      6.228000    4.548900    0.222200
C      6.380700    4.887000    1.566000
Br     2.850200    2.242500    0.600800
N      4.517000    3.691100    2.220700
N      5.557500    4.475500    2.534900
H      4.954600    3.423900   -1.121700
H      6.921400    4.907300   -0.525100
H      7.193700    5.515500    1.902100
