22

O      1.225500   -0.000000   -0.000000
C      0.000000   -0.000000   -0.000000
N     -0.713000    0.000000    1.154400
H     -1.712600    0.063700    1.111800
C     -0.806800   -0.008800   -1.275400
C     -0.038900    0.050500    2.435000
H     -0.754300   -0.173300    3.220300
H      0.760300   -0.685200    2.452100
H      0.401600    1.029800    2.616000
H     -1.879900   -0.053500   -1.105800
H     -0.500400   -0.864800   -1.870900
H     -0.569100    0.889100   -1.840600
C     -0.006500    6.041600    0.308500
C     -0.550000    6.552900    1.486900
C     -1.443800    7.595700    1.337800
C     -1.710700    8.028200    0.039700
Br     1.224600    4.616100    0.402500
N     -0.286300    6.481800   -0.915500
N     -1.154600    7.493900   -1.051700
H     -0.278000    6.147000    2.449400
H     -1.919600    8.060800    2.189300
H     -2.398800    8.838800   -0.156000
