22

O      1.225500   -0.000000   -0.000000
C      0.000000   -0.000000   -0.000000
N     -0.713000    0.000000    1.154400
H     -1.712600    0.063700    1.111800
C     -0.806800   -0.008800   -1.275400
C     -0.038900    0.050500    2.435000
H     -0.754300   -0.173300    3.220300
H      0.760300   -0.685200    2.452100
H      0.401600    1.029800    2.616000
H     -1.879900   -0.053500   -1.105800
H     -0.500400   -0.864800   -1.870900
H     -0.569100    0.889100   -1.840600
C      2.028200    6.106300   -0.428300
C      2.427300    7.190400    0.353100
C      3.007800    8.244000   -0.326200
C      3.135500    8.120500   -1.708800
Br     1.224600    4.616100    0.402500
N      2.167000    6.024600   -1.749000
N      2.731200    7.051000   -2.400700
H      2.284100    7.190400    1.423000
H      3.350700    9.130300    0.188400
H      3.579400    8.903400   -2.307900
