22

O      1.225500   -0.000000   -0.000000
C      0.000000   -0.000000   -0.000000
N     -0.713000    0.000000    1.154400
H     -1.712600    0.063700    1.111800
C     -0.806800   -0.008800   -1.275400
C     -0.038900    0.050500    2.435000
H     -0.754300   -0.173300    3.220300
H      0.760300   -0.685200    2.452100
H      0.401600    1.029800    2.616000
H     -1.879900   -0.053500   -1.105800
H     -0.500400   -0.864800   -1.870900
H     -0.569100    0.889100   -1.840600
C      6.967600    3.712500   -0.687500
C      6.641300    5.068400   -0.709300
C      7.707600    5.946400   -0.736200
C      8.988600    5.396500   -0.739100
Br     5.584500    2.431000   -0.649900
N      8.205400    3.224700   -0.691100
N      9.234500    4.083200   -0.717300
H      5.612600    5.395300   -0.704900
H      7.560300    7.016800   -0.754500
H      9.871500    6.020100   -0.759500
