22

O      1.225500   -0.000000   -0.000000
C      0.000000   -0.000000   -0.000000
N     -0.713000    0.000000    1.154400
H     -1.712600    0.063700    1.111800
C     -0.806800   -0.008800   -1.275400
C     -0.038900    0.050500    2.435000
H     -0.754300   -0.173300    3.220300
H      0.760300   -0.685200    2.452100
H      0.401600    1.029800    2.616000
H     -1.879900   -0.053500   -1.105800
H     -0.500400   -0.864800   -1.870900
H     -0.569100    0.889100   -1.840600
C      7.078500    0.246900    2.827800
C      7.693200    0.137100    4.075000
C      8.959700   -0.414700    4.078200
C      9.491300   -0.802300    2.849200
Br     5.347600    0.987000    2.714100
N      7.618900   -0.135200    1.673700
N      8.848200   -0.669600    1.685300
H      7.195600    0.468000    4.973900
H      9.520000   -0.542800    4.993300
H     10.476200   -1.241400    2.772300
