22

O      1.225500   -0.000000   -0.000000
C      0.000000   -0.000000   -0.000000
N     -0.713000    0.000000    1.154400
H     -1.712600    0.063700    1.111800
C     -0.806800   -0.008800   -1.275400
C     -0.038900    0.050500    2.435000
H     -0.754300   -0.173300    3.220300
H      0.760300   -0.685200    2.452100
H      0.401600    1.029800    2.616000
H     -1.879900   -0.053500   -1.105800
H     -0.500400   -0.864800   -1.870900
H     -0.569100    0.889100   -1.840600
C      0.412500   -5.690500   -1.358500
C      1.164500   -6.246200   -2.393500
C      1.028900   -7.608900   -2.575100
C      0.164100   -8.285400   -1.716100
Br     0.526100   -3.837400   -1.027300
N     -0.404100   -6.370200   -0.557700
N     -0.530200   -7.692100   -0.740400
H      1.808800   -5.634300   -3.006400
H      1.568800   -8.134200   -3.349900
H      0.006500   -9.351900   -1.797000
