22

O      1.225500   -0.000000   -0.000000
C      0.000000   -0.000000   -0.000000
N     -0.713000    0.000000    1.154400
H     -1.712600    0.063700    1.111800
C     -0.806800   -0.008800   -1.275400
C     -0.038900    0.050500    2.435000
H     -0.754300   -0.173300    3.220300
H      0.760300   -0.685200    2.452100
H      0.401600    1.029800    2.616000
H     -1.879900   -0.053500   -1.105800
H     -0.500400   -0.864800   -1.870900
H     -0.569100    0.889100   -1.840600
C      6.088000    2.306100   -2.845700
C      6.162700    3.679600   -3.076600
C      7.380300    4.151400   -3.527600
C      8.401300    3.219000   -3.705000
Br     4.469400    1.560800   -2.228300
N      7.086600    1.445800   -3.027000
N      8.264800    1.911500   -3.464800
H      5.311300    4.321300   -2.908100
H      7.540200    5.199700   -3.735900
H      9.381000    3.513000   -4.055000
