22

O      1.225500   -0.000000   -0.000000
C      0.000000   -0.000000   -0.000000
N     -0.713000    0.000000    1.154400
H     -1.712600    0.063700    1.111800
C     -0.806800   -0.008800   -1.275400
C     -0.038900    0.050500    2.435000
H     -0.754300   -0.173300    3.220300
H      0.760300   -0.685200    2.452100
H      0.401600    1.029800    2.616000
H     -1.879900   -0.053500   -1.105800
H     -0.500400   -0.864800   -1.870900
H     -0.569100    0.889100   -1.840600
C      2.795800   -1.983500   -6.228200
C      2.783100   -1.548400   -7.553300
C      3.309200   -2.425000   -8.482500
C      3.794700   -3.642900   -8.009000
Br     2.100400   -0.861000   -4.881700
N      3.269000   -3.155900   -5.813800
N      3.777700   -4.000800   -6.721500
H      2.382700   -0.582100   -7.820000
H      3.345300   -2.181600   -9.534700
H      4.220900   -4.379500   -8.675900
