22

O      1.225500   -0.000000   -0.000000
C      0.000000   -0.000000   -0.000000
N     -0.713000    0.000000    1.154400
H     -1.712600    0.063700    1.111800
C     -0.806800   -0.008800   -1.275400
C     -0.038900    0.050500    2.435000
H     -0.754300   -0.173300    3.220300
H      0.760300   -0.685200    2.452100
H      0.401600    1.029800    2.616000
H     -1.879900   -0.053500   -1.105800
H     -0.500400   -0.864800   -1.870900
H     -0.569100    0.889100   -1.840600
C      4.657500    0.748500    3.993600
C      5.716200    0.124600    4.653500
C      5.866900    0.442100    5.989500
C      4.956800    1.343800    6.538900
Br     4.365000    0.382900    2.166700
N      3.807700    1.605700    4.553100
N      3.960700    1.908500    5.849900
H      6.369100   -0.562300    4.136800
H      6.656500    0.011800    6.588900
H      5.011300    1.640200    7.577200
