22

O      1.225500   -0.000000   -0.000000
C      0.000000   -0.000000   -0.000000
N     -0.713000    0.000000    1.154400
H     -1.712600    0.063700    1.111800
C     -0.806800   -0.008800   -1.275400
C     -0.038900    0.050500    2.435000
H     -0.754300   -0.173300    3.220300
H      0.760300   -0.685200    2.452100
H      0.401600    1.029800    2.616000
H     -1.879900   -0.053500   -1.105800
H     -0.500400   -0.864800   -1.870900
H     -0.569100    0.889100   -1.840600
C      2.514500   -4.810600    2.162500
C      1.322700   -5.486600    2.423100
C      1.436600   -6.652100    3.156000
C      2.716200   -7.032300    3.557600
Br     2.468300   -3.208100    1.169200
N      3.720000   -5.205600    2.563500
N      3.822100   -6.337500    3.274200
H      0.376700   -5.108500    2.066400
H      0.572200   -7.248600    3.410400
H      2.884300   -7.931600    4.133600
