22

O      1.225500   -0.000000   -0.000000
C      0.000000   -0.000000   -0.000000
N     -0.713000    0.000000    1.154400
H     -1.712600    0.063700    1.111800
C     -0.806800   -0.008800   -1.275400
C     -0.038900    0.050500    2.435000
H     -0.754300   -0.173300    3.220300
H      0.760300   -0.685200    2.452100
H      0.401600    1.029800    2.616000
H     -1.879900   -0.053500   -1.105800
H     -0.500400   -0.864800   -1.870900
H     -0.569100    0.889100   -1.840600
C     -0.208100   -5.258300    0.555400
C     -1.456000   -5.866100    0.692400
C     -1.466300   -7.086500    1.339600
C     -0.242900   -7.583500    1.786300
Br    -0.085000   -3.589100   -0.313600
N      0.940600   -5.764900    0.996000
N      0.922100   -6.949500    1.623000
H     -2.350200   -5.397700    0.310000
H     -2.382500   -7.637700    1.496000
H     -0.171600   -8.531700    2.300900
