22

O      1.225500   -0.000000   -0.000000
C      0.000000   -0.000000   -0.000000
N     -0.713000    0.000000    1.154400
H     -1.712600    0.063700    1.111800
C     -0.806800   -0.008800   -1.275400
C     -0.038900    0.050500    2.435000
H     -0.754300   -0.173300    3.220300
H      0.760300   -0.685200    2.452100
H      0.401600    1.029800    2.616000
H     -1.879900   -0.053500   -1.105800
H     -0.500400   -0.864800   -1.870900
H     -0.569100    0.889100   -1.840600
C      0.629800    4.391300    0.188900
C      1.962300    4.793300    0.279500
C      2.415300    5.617200   -0.732600
C      1.506400    5.961000   -1.732100
Br    -0.086900    3.265100    1.521100
N     -0.209100    4.741000   -0.782700
N      0.238200    5.540700   -1.761100
H      2.588400    4.471100    1.097600
H      3.431900    5.983300   -0.753600
H      1.787800    6.601600   -2.556300
