22

O      1.225500   -0.000000   -0.000000
C      0.000000   -0.000000   -0.000000
N     -0.713000    0.000000    1.154400
H     -1.712600    0.063700    1.111800
C     -0.806800   -0.008800   -1.275400
C     -0.038900    0.050500    2.435000
H     -0.754300   -0.173300    3.220300
H      0.760300   -0.685200    2.452100
H      0.401600    1.029800    2.616000
H     -1.879900   -0.053500   -1.105800
H     -0.500400   -0.864800   -1.870900
H     -0.569100    0.889100   -1.840600
C      2.298700    4.885000    1.283200
C      1.815300    6.156400    0.974200
C      1.948000    7.110700    1.964300
C      2.544800    6.712900    3.159700
Br     2.165400    3.510000   -0.000600
N      2.863500    4.542600    2.438100
N      2.988500    5.474200    3.393700
H      1.367300    6.365500    0.014700
H      1.604900    8.125600    1.823200
H      2.682900    7.403500    3.980000
