22

O      1.225500   -0.000000   -0.000000
C      0.000000   -0.000000   -0.000000
N     -0.713000    0.000000    1.154400
H     -1.712600    0.063700    1.111800
C     -0.806800   -0.008800   -1.275400
C     -0.038900    0.050500    2.435000
H     -0.754300   -0.173300    3.220300
H      0.760300   -0.685200    2.452100
H      0.401600    1.029800    2.616000
H     -1.879900   -0.053500   -1.105800
H     -0.500400   -0.864800   -1.870900
H     -0.569100    0.889100   -1.840600
C      1.926600    2.684800   -4.721100
C      0.888700    3.108700   -5.550900
C      1.246900    3.953600   -6.583500
C      2.594200    4.294600   -6.692300
Br     1.543300    1.529000   -3.281000
N      3.203500    3.032600   -4.856900
N      3.543000    3.852700   -5.861400
H     -0.127800    2.786700   -5.382600
H      0.516500    4.337400   -7.281300
H      2.950000    4.950700   -7.474500
