22

O      1.225500   -0.000000   -0.000000
C      0.000000   -0.000000   -0.000000
N     -0.713000    0.000000    1.154400
H     -1.712600    0.063700    1.111800
C     -0.806800   -0.008800   -1.275400
C     -0.038900    0.050500    2.435000
H     -0.754300   -0.173300    3.220300
H      0.760300   -0.685200    2.452100
H      0.401600    1.029800    2.616000
H     -1.879900   -0.053500   -1.105800
H     -0.500400   -0.864800   -1.870900
H     -0.569100    0.889100   -1.840600
C      1.900200   -4.506900    3.101600
C      2.036800   -4.391000    4.484800
C      2.298500   -5.563500    5.166800
C      2.398800   -6.732300    4.413800
Br     1.541800   -2.964600    2.077200
N      2.002900   -5.642800    2.416600
N      2.256900   -6.776200    3.085700
H      1.941000   -3.435200    4.977200
H      2.421300   -5.579700    6.240400
H      2.601600   -7.687900    4.877100
