22

O      1.225500   -0.000000   -0.000000
C      0.000000   -0.000000   -0.000000
N     -0.713000    0.000000    1.154400
H     -1.712600    0.063700    1.111800
C     -0.806800   -0.008800   -1.275400
C     -0.038900    0.050500    2.435000
H     -0.754300   -0.173300    3.220300
H      0.760300   -0.685200    2.452100
H      0.401600    1.029800    2.616000
H     -1.879900   -0.053500   -1.105800
H     -0.500400   -0.864800   -1.870900
H     -0.569100    0.889100   -1.840600
C      1.924200   -0.110900   -5.000700
C      1.601300    1.033700   -5.729500
C      1.517400    0.874600   -7.099200
C      1.760900   -0.399100   -7.610900
Br     2.063700   -0.000700   -3.123200
N      2.150200   -1.312200   -5.525900
N      2.066800   -1.458300   -6.855800
H      1.430400    1.979100   -5.237500
H      1.273300    1.700400   -7.752000
H      1.713600   -0.600600   -8.672000
