22

O      1.225500   -0.000000   -0.000000
C      0.000000   -0.000000   -0.000000
N     -0.713000    0.000000    1.154400
H     -1.712600    0.063700    1.111800
C     -0.806800   -0.008800   -1.275400
C     -0.038900    0.050500    2.435000
H     -0.754300   -0.173300    3.220300
H      0.760300   -0.685200    2.452100
H      0.401600    1.029800    2.616000
H     -1.879900   -0.053500   -1.105800
H     -0.500400   -0.864800   -1.870900
H     -0.569100    0.889100   -1.840600
C      1.171000   -4.244600   -2.574300
C      1.878200   -4.657500   -3.703400
C      1.365200   -5.752800   -4.371000
C      0.205400   -6.329800   -3.856000
Br     1.788100   -2.758200   -1.591300
N      0.065000   -4.822200   -2.112400
N     -0.426300   -5.884500   -2.765800
H      2.770800   -4.141300   -4.022800
H      1.839700   -6.150200   -5.256800
H     -0.254400   -7.189200   -4.323900
