22

O      1.225500   -0.000000   -0.000000
C      0.000000   -0.000000   -0.000000
N     -0.713000    0.000000    1.154400
H     -1.712600    0.063700    1.111800
C     -0.806800   -0.008800   -1.275400
C     -0.038900    0.050500    2.435000
H     -0.754300   -0.173300    3.220300
H      0.760300   -0.685200    2.452100
H      0.401600    1.029800    2.616000
H     -1.879900   -0.053500   -1.105800
H     -0.500400   -0.864800   -1.870900
H     -0.569100    0.889100   -1.840600
C      5.552100   -3.953800    1.956200
C      6.080800   -4.379000    3.174800
C      7.161300   -5.236500    3.098700
C      7.610600   -5.587400    1.826600
Br     4.075100   -2.781200    1.950000
N      6.009300   -4.311300    0.759000
N      7.058000   -5.143600    0.693700
H      5.659400   -4.048700    4.112100
H      7.642500   -5.622400    3.986100
H      8.450600   -6.253700    1.687400
