22

O      1.225500   -0.000000   -0.000000
C      0.000000   -0.000000   -0.000000
N     -0.713000    0.000000    1.154400
H     -1.712600    0.063700    1.111800
C     -0.806800   -0.008800   -1.275400
C     -0.038900    0.050500    2.435000
H     -0.754300   -0.173300    3.220300
H      0.760300   -0.685200    2.452100
H      0.401600    1.029800    2.616000
H     -1.879900   -0.053500   -1.105800
H     -0.500400   -0.864800   -1.870900
H     -0.569100    0.889100   -1.840600
C      4.569700   -1.735400    4.367700
C      3.929800   -0.674400    5.008300
C      4.346100   -0.407500    6.298200
C      5.352400   -1.215400    6.825300
Br     4.074700   -2.182000    2.603600
N      5.528300   -2.485500    4.904800
N      5.926600   -2.220100    6.156900
H      3.157900   -0.106200    4.511900
H      3.912700    0.393800    6.879500
H      5.729800   -1.067200    7.827600
