22

O      1.225500   -0.000000   -0.000000
C      0.000000   -0.000000   -0.000000
N     -0.713000    0.000000    1.154400
H     -1.712600    0.063700    1.111800
C     -0.806800   -0.008800   -1.275400
C     -0.038900    0.050500    2.435000
H     -0.754300   -0.173300    3.220300
H      0.760300   -0.685200    2.452100
H      0.401600    1.029800    2.616000
H     -1.879900   -0.053500   -1.105800
H     -0.500400   -0.864800   -1.870900
H     -0.569100    0.889100   -1.840600
C      6.386100    2.715800    1.435500
C      7.197400    3.207300    2.458100
C      8.476800    3.576200    2.090300
C      8.826000    3.422400    0.749500
Br     4.620800    2.184300    1.832700
N      6.755700    2.583400    0.164300
N      7.998800    2.943500   -0.184500
H      6.832100    3.288200    3.470600
H      9.182400    3.968600    2.808600
H      9.808900    3.689300    0.386900
