22

O      1.225500   -0.000000   -0.000000
C      0.000000   -0.000000   -0.000000
N     -0.713000    0.000000    1.154400
H     -1.712600    0.063700    1.111800
C     -0.806800   -0.008800   -1.275400
C     -0.038900    0.050500    2.435000
H     -0.754300   -0.173300    3.220300
H      0.760300   -0.685200    2.452100
H      0.401600    1.029800    2.616000
H     -1.879900   -0.053500   -1.105800
H     -0.500400   -0.864800   -1.870900
H     -0.569100    0.889100   -1.840600
C     -2.117400    4.469000    3.360700
C     -2.522700    5.199400    2.243700
C     -2.839500    6.524800    2.470400
C     -2.723900    6.995100    3.777700
Br    -1.662500    2.650000    3.158400
N     -2.019200    4.953800    4.595700
N     -2.328300    6.240800    4.807500
H     -2.580100    4.741600    1.267800
H     -3.164100    7.175000    1.670700
H     -2.954200    8.020300    4.032200
