22

O      1.225500   -0.000000   -0.000000
C      0.000000   -0.000000   -0.000000
N     -0.713000    0.000000    1.154400
H     -1.712600    0.063700    1.111800
C     -0.806800   -0.008800   -1.275400
C     -0.038900    0.050500    2.435000
H     -0.754300   -0.173300    3.220300
H      0.760300   -0.685200    2.452100
H      0.401600    1.029800    2.616000
H     -1.879900   -0.053500   -1.105800
H     -0.500400   -0.864800   -1.870900
H     -0.569100    0.889100   -1.840600
C     -2.787500    4.154600    3.323100
C     -3.365500    4.703200    2.178400
C     -4.176900    5.803200    2.378700
C     -4.335500    6.250400    3.689500
Br    -1.662500    2.650000    3.158400
N     -2.963000    4.610400    4.560700
N     -3.751800    5.678100    4.746600
H     -3.179700    4.281700    1.202200
H     -4.670800    6.300600    1.556300
H     -4.954800    7.104900    3.924400
