22

O      1.225500   -0.000000   -0.000000
C      0.000000   -0.000000   -0.000000
N     -0.713000    0.000000    1.154400
H     -1.712600    0.063700    1.111800
C     -0.806800   -0.008800   -1.275400
C     -0.038900    0.050500    2.435000
H     -0.754300   -0.173300    3.220300
H      0.760300   -0.685200    2.452100
H      0.401600    1.029800    2.616000
H     -1.879900   -0.053500   -1.105800
H     -0.500400   -0.864800   -1.870900
H     -0.569100    0.889100   -1.840600
C     -0.856500    5.367000    1.241500
C     -1.654700    6.497400    1.067000
C     -0.993400    7.653600    0.700300
C      0.389600    7.576500    0.543000
Br    -1.662100    3.737000    1.742400
N      0.463800    5.332300    1.081800
N      1.098000    6.458200    0.726000
H     -2.723200    6.454600    1.213500
H     -1.521700    8.582600    0.540600
H      0.975200    8.439400    0.257500
