22

O      1.225500   -0.000000   -0.000000
C      0.000000   -0.000000   -0.000000
N     -0.713000    0.000000    1.154400
H     -1.712600    0.063700    1.111800
C     -0.806800   -0.008800   -1.275400
C     -0.038900    0.050500    2.435000
H     -0.754300   -0.173300    3.220300
H      0.760300   -0.685200    2.452100
H      0.401600    1.029800    2.616000
H     -1.879900   -0.053500   -1.105800
H     -0.500400   -0.864800   -1.870900
H     -0.569100    0.889100   -1.840600
C      0.043100   -6.186900   -0.346600
C     -0.271500   -6.270600    1.009700
C     -0.199700   -7.531200    1.570200
C      0.175500   -8.582000    0.734500
Br    -0.024300   -4.510400   -1.207700
N      0.397800   -7.214800   -1.113100
N      0.465100   -8.434700   -0.561800
H     -0.552200   -5.393600    1.573000
H     -0.424300   -7.701500    2.613500
H      0.253500   -9.596000    1.101300
