22

O      1.225500   -0.000000   -0.000000
C      0.000000   -0.000000   -0.000000
N     -0.713000    0.000000    1.154400
H     -1.712600    0.063700    1.111800
C     -0.806800   -0.008800   -1.275400
C     -0.038900    0.050500    2.435000
H     -0.754300   -0.173300    3.220300
H      0.760300   -0.685200    2.452100
H      0.401600    1.029800    2.616000
H     -1.879900   -0.053500   -1.105800
H     -0.500400   -0.864800   -1.870900
H     -0.569100    0.889100   -1.840600
C      1.111800   -6.012600   -1.110700
C      2.492900   -5.822200   -1.067900
C      3.259400   -6.969300   -0.997500
C      2.584400   -8.188800   -0.976300
Br    -0.024300   -4.510400   -1.207700
N      0.502900   -7.195300   -1.088500
N      1.253700   -8.303600   -1.020100
H      2.920900   -4.831400   -1.089400
H      4.338600   -6.928700   -0.960000
H      3.116200   -9.128600   -0.922100
