22

O      1.225500   -0.000000   -0.000000
C      0.000000   -0.000000   -0.000000
N     -0.713000    0.000000    1.154400
H     -1.712600    0.063700    1.111800
C     -0.806800   -0.008800   -1.275400
C     -0.038900    0.050500    2.435000
H     -0.754300   -0.173300    3.220300
H      0.760300   -0.685200    2.452100
H      0.401600    1.029800    2.616000
H     -1.879900   -0.053500   -1.105800
H     -0.500400   -0.864800   -1.870900
H     -0.569100    0.889100   -1.840600
C      1.469000   -5.138400   -3.074100
C      2.382200   -5.695400   -3.969200
C      1.949300   -6.811800   -4.658100
C      0.658000   -7.265500   -4.393400
Br     1.962100   -3.611300   -2.083400
N      0.242200   -5.600800   -2.847900
N     -0.170300   -6.684500   -3.520300
H      3.364100   -5.267700   -4.103800
H      2.581700   -7.316800   -5.374200
H      0.249700   -8.132800   -4.893400
