22

O      1.225500   -0.000000   -0.000000
C      0.000000   -0.000000   -0.000000
N     -0.713000    0.000000    1.154400
H     -1.712600    0.063700    1.111800
C     -0.806800   -0.008800   -1.275400
C     -0.038900    0.050500    2.435000
H     -0.754300   -0.173300    3.220300
H      0.760300   -0.685200    2.452100
H      0.401600    1.029800    2.616000
H     -1.879900   -0.053500   -1.105800
H     -0.500400   -0.864800   -1.870900
H     -0.569100    0.889100   -1.840600
C      1.360800   -4.589500   -3.997200
C      0.078100   -4.867700   -4.469200
C     -0.014600   -5.874900   -5.410100
C      1.169000   -6.505800   -5.790000
Br     1.596100   -3.231500   -2.710000
N      2.469400   -5.214800   -4.384700
N      2.371000   -6.191000   -5.298000
H     -0.779900   -4.319700   -4.110500
H     -0.963500   -6.166000   -5.837500
H      1.175800   -7.302600   -6.520800
