22

O      1.225500   -0.000000   -0.000000
C      0.000000   -0.000000   -0.000000
N     -0.713000    0.000000    1.154400
H     -1.712600    0.063700    1.111800
C     -0.806800   -0.008800   -1.275400
C     -0.038900    0.050500    2.435000
H     -0.754300   -0.173300    3.220300
H      0.760300   -0.685200    2.452100
H      0.401600    1.029800    2.616000
H     -1.879900   -0.053500   -1.105800
H     -0.500400   -0.864800   -1.870900
H     -0.569100    0.889100   -1.840600
C      4.959900   -5.600600    0.154600
C      5.451300   -5.526200   -1.148600
C      6.338500   -6.518700   -1.517800
C      6.650800   -7.484700   -0.562400
Br     3.742100   -4.293000    0.757700
N      5.282100   -6.540100    1.039800
N      6.143600   -7.499700    0.673900
H      5.146700   -4.734300   -1.815900
H      6.775500   -6.549900   -2.505600
H      7.336900   -8.292000   -0.777800
