22

O      1.225500   -0.000000   -0.000000
C      0.000000   -0.000000   -0.000000
N     -0.713000    0.000000    1.154400
H     -1.712600    0.063700    1.111800
C     -0.806800   -0.008800   -1.275400
C     -0.038900    0.050500    2.435000
H     -0.754300   -0.173300    3.220300
H      0.760300   -0.685200    2.452100
H      0.401600    1.029800    2.616000
H     -1.879900   -0.053500   -1.105800
H     -0.500400   -0.864800   -1.870900
H     -0.569100    0.889100   -1.840600
C      7.271200   -1.122000    3.069600
C      7.812600   -0.266200    4.028800
C      8.897900   -0.754100    4.730600
C      9.339000   -2.038100    4.414300
Br     5.786800   -0.551000    2.056200
N      7.720800   -2.343700    2.795400
N      8.774300   -2.809900    3.480700
H      7.396800    0.715100    4.200000
H      9.388700   -0.168500    5.494800
H     10.182000   -2.487200    4.920700
