22

O      1.225500   -0.000000   -0.000000
C      0.000000   -0.000000   -0.000000
N     -0.713000    0.000000    1.154400
H     -1.712600    0.063700    1.111800
C     -0.806800   -0.008800   -1.275400
C     -0.038900    0.050500    2.435000
H     -0.754300   -0.173300    3.220300
H      0.760300   -0.685200    2.452100
H      0.401600    1.029800    2.616000
H     -1.879900   -0.053500   -1.105800
H     -0.500400   -0.864800   -1.870900
H     -0.569100    0.889100   -1.840600
C      6.848000   -2.280100   -1.254500
C      7.431000   -1.338200   -2.102100
C      8.066700   -1.842500   -3.220100
C      8.062300   -3.226400   -3.388300
Br     5.955200   -1.695000    0.300200
N      6.864600   -3.596200   -1.448900
N      7.483400   -4.077600   -2.536100
H      7.379700   -0.282500   -1.883100
H      8.549200   -1.195100   -3.938400
H      8.539100   -3.694200   -4.238400
