22

O      1.225500   -0.000000   -0.000000
C      0.000000   -0.000000   -0.000000
N     -0.713000    0.000000    1.154400
H     -1.712600    0.063700    1.111800
C     -0.806800   -0.008800   -1.275400
C     -0.038900    0.050500    2.435000
H     -0.754300   -0.173300    3.220300
H      0.760300   -0.685200    2.452100
H      0.401600    1.029800    2.616000
H     -1.879900   -0.053500   -1.105800
H     -0.500400   -0.864800   -1.870900
H     -0.569100    0.889100   -1.840600
C      3.138600   -2.020700    4.026200
C      3.677700   -1.187400    3.046200
C      4.427700   -0.121600    3.504600
C      4.569500    0.013600    4.884800
Br     2.098400   -3.505000    3.505300
N      3.296300   -1.859000    5.337400
N      4.025300   -0.822400    5.774100
H      3.509600   -1.377800    1.997100
H      4.887800    0.581700    2.825300
H      5.141500    0.822400    5.317900
