22

O      1.225500   -0.000000   -0.000000
C      0.000000   -0.000000   -0.000000
N     -0.713000    0.000000    1.154400
H     -1.712600    0.063700    1.111800
C     -0.806800   -0.008800   -1.275400
C     -0.038900    0.050500    2.435000
H     -0.754300   -0.173300    3.220300
H      0.760300   -0.685200    2.452100
H      0.401600    1.029800    2.616000
H     -1.879900   -0.053500   -1.105800
H     -0.500400   -0.864800   -1.870900
H     -0.569100    0.889100   -1.840600
C     -1.423500    4.900200    2.278900
C     -2.004600    5.657200    3.296200
C     -3.306100    6.065600    3.077700
C     -3.902400    5.685100    1.876500
Br     0.350700    4.293000    2.478900
N     -2.026000    4.556100    1.143700
N     -3.288900    4.956300    0.939300
H     -1.456600    5.900600    4.193700
H     -3.844600    6.656200    3.805000
H     -4.917800    5.967100    1.635100
