22

O      1.225500   -0.000000   -0.000000
C      0.000000   -0.000000   -0.000000
N     -0.713000    0.000000    1.154400
H     -1.712600    0.063700    1.111800
C     -0.806800   -0.008800   -1.275400
C     -0.038900    0.050500    2.435000
H     -0.754300   -0.173300    3.220300
H      0.760300   -0.685200    2.452100
H      0.401600    1.029800    2.616000
H     -1.879900   -0.053500   -1.105800
H     -0.500400   -0.864800   -1.870900
H     -0.569100    0.889100   -1.840600
C      0.916800    4.843400   -3.232200
C      1.428800    6.037000   -2.723500
C      2.410100    6.645700   -3.481800
C      2.786700    6.014100   -4.666100
Br    -0.427400    3.932700   -2.272900
N      1.302500    4.270100   -4.369200
N      2.255200    4.867000   -5.099100
H      1.069000    6.446800   -1.792000
H      2.870300    7.573700   -3.174100
H      3.547600    6.430300   -5.311600
