22

O      1.225500   -0.000000   -0.000000
C      0.000000   -0.000000   -0.000000
N     -0.713000    0.000000    1.154400
H     -1.712600    0.063700    1.111800
C     -0.806800   -0.008800   -1.275400
C     -0.038900    0.050500    2.435000
H     -0.754300   -0.173300    3.220300
H      0.760300   -0.685200    2.452100
H      0.401600    1.029800    2.616000
H     -1.879900   -0.053500   -1.105800
H     -0.500400   -0.864800   -1.870900
H     -0.569100    0.889100   -1.840600
C     -2.261600   -5.027900    1.107100
C     -1.154800   -5.451400    1.842800
C     -1.417700   -6.319800    2.884500
C     -2.747300   -6.682300    3.094500
Br    -2.010600   -3.841000   -0.336800
N     -3.518800   -5.396700    1.338300
N     -3.765600   -6.239500    2.350900
H     -0.159500   -5.111600    1.599700
H     -0.628600   -6.705400    3.514100
H     -3.030400   -7.357500    3.890100
