22

O      1.225500   -0.000000   -0.000000
C      0.000000   -0.000000   -0.000000
N     -0.713000    0.000000    1.154400
H     -1.712600    0.063700    1.111800
C     -0.806800   -0.008800   -1.275400
C     -0.038900    0.050500    2.435000
H     -0.754300   -0.173300    3.220300
H      0.760300   -0.685200    2.452100
H      0.401600    1.029800    2.616000
H     -1.879900   -0.053500   -1.105800
H     -0.500400   -0.864800   -1.870900
H     -0.569100    0.889100   -1.840600
C      3.008000   -2.307300   -4.805400
C      2.893900   -1.970400   -6.154100
C      2.647800   -3.018200   -7.020100
C      2.539000   -4.293000   -6.466600
Br     3.343900   -0.949500   -3.540400
N      2.897800   -3.538600   -4.313800
N      2.659000   -4.549800   -5.160700
H      2.994600   -0.947800   -6.484700
H      2.542800   -2.861600   -8.084200
H      2.347300   -5.161800   -7.081000
