22

O      1.225500   -0.000000   -0.000000
C      0.000000   -0.000000   -0.000000
N     -0.713000    0.000000    1.154400
H     -1.712600    0.063700    1.111800
C     -0.806800   -0.008800   -1.275400
C     -0.038900    0.050500    2.435000
H     -0.754300   -0.173300    3.220300
H      0.760300   -0.685200    2.452100
H      0.401600    1.029800    2.616000
H     -1.879900   -0.053500   -1.105800
H     -0.500400   -0.864800   -1.870900
H     -0.569100    0.889100   -1.840600
C      5.071600    3.906300    2.001600
C      5.812900    4.177200    0.851600
C      7.070800    4.710800    1.055000
C      7.469600    4.923000    2.373800
Br     3.341000    3.176000    1.833200
N      5.487100    4.122900    3.246800
N      6.708900    4.640800    3.435700
H      5.413100    3.976300   -0.130700
H      7.723200    4.955700    0.229100
H      8.439600    5.337200    2.611600
