22

O      1.225500   -0.000000   -0.000000
C      0.000000   -0.000000   -0.000000
N     -0.713000    0.000000    1.154400
H     -1.712600    0.063700    1.111800
C     -0.806800   -0.008800   -1.275400
C     -0.038900    0.050500    2.435000
H     -0.754300   -0.173300    3.220300
H      0.760300   -0.685200    2.452100
H      0.401600    1.029800    2.616000
H     -1.879900   -0.053500   -1.105800
H     -0.500400   -0.864800   -1.870900
H     -0.569100    0.889100   -1.840600
C     -1.388400    5.535000    1.855300
C     -0.674300    5.840100    3.013900
C     -1.395000    6.441500    4.027500
C     -2.748400    6.680900    3.794400
Br    -0.496800    4.712000    0.411600
N     -2.682900    5.779400    1.669400
N     -3.375200    6.363200    2.657700
H      0.377700    5.613400    3.097500
H     -0.933500    6.717200    4.964900
H     -3.376700    7.147700    4.540200
