22

O      1.225500   -0.000000   -0.000000
C      0.000000   -0.000000   -0.000000
N     -0.713000    0.000000    1.154400
H     -1.712600    0.063700    1.111800
C     -0.806800   -0.008800   -1.275400
C     -0.038900    0.050500    2.435000
H     -0.754300   -0.173300    3.220300
H      0.760300   -0.685200    2.452100
H      0.401600    1.029800    2.616000
H     -1.879900   -0.053500   -1.105800
H     -0.500400   -0.864800   -1.870900
H     -0.569100    0.889100   -1.840600
C      6.190500   -1.276500   -0.617700
C      7.269400   -1.468200   -1.480700
C      8.460000   -1.839800   -0.886800
C      8.465000   -1.984600    0.499700
Br     4.519400   -0.767600   -1.328300
N      6.234000   -1.424500    0.703800
N      7.393000   -1.785300    1.272400
H      7.163500   -1.330300   -2.546100
H      9.354100   -2.012500   -1.468600
H      9.359000   -2.272800    1.034900
