22

O      1.225500   -0.000000   -0.000000
C      0.000000   -0.000000   -0.000000
N     -0.713000    0.000000    1.154400
H     -1.712600    0.063700    1.111800
C     -0.806800   -0.008800   -1.275400
C     -0.038900    0.050500    2.435000
H     -0.754300   -0.173300    3.220300
H      0.760300   -0.685200    2.452100
H      0.401600    1.029800    2.616000
H     -1.879900   -0.053500   -1.105800
H     -0.500400   -0.864800   -1.870900
H     -0.569100    0.889100   -1.840600
C      5.806400   -2.552200    1.648600
C      7.052400   -1.962300    1.860400
C      8.053100   -2.805500    2.303100
C      7.722100   -4.146400    2.492000
Br     4.372100   -1.487500    1.043800
N      5.528200   -3.839000    1.840400
N      6.504600   -4.650600    2.270100
H      7.208700   -0.908800    1.684200
H      9.053500   -2.445600    2.496700
H      8.451900   -4.865900    2.836500
