22

O      1.225500   -0.000000   -0.000000
C      0.000000   -0.000000   -0.000000
N     -0.713000    0.000000    1.154400
H     -1.712600    0.063700    1.111800
C     -0.806800   -0.008800   -1.275400
C     -0.038900    0.050500    2.435000
H     -0.754300   -0.173300    3.220300
H      0.760300   -0.685200    2.452100
H      0.401600    1.029800    2.616000
H     -1.879900   -0.053500   -1.105800
H     -0.500400   -0.864800   -1.870900
H     -0.569100    0.889100   -1.840600
C      3.833600    0.680300    5.967800
C      3.865800    2.060500    5.769400
C      4.533900    2.794100    6.730600
C      5.102800    2.090300    7.791000
Br     2.946100   -0.412000    4.712500
N      4.389600    0.043300    6.995000
N      5.036100    0.762100    7.923400
H      3.392200    2.512500    4.911100
H      4.615300    3.869800    6.668000
H      5.641100    2.595500    8.580900
