22

O      1.225500   -0.000000   -0.000000
C      0.000000   -0.000000   -0.000000
N     -0.713000    0.000000    1.154400
H     -1.712600    0.063700    1.111800
C     -0.806800   -0.008800   -1.275400
C     -0.038900    0.050500    2.435000
H     -0.754300   -0.173300    3.220300
H      0.760300   -0.685200    2.452100
H      0.401600    1.029800    2.616000
H     -1.879900   -0.053500   -1.105800
H     -0.500400   -0.864800   -1.870900
H     -0.569100    0.889100   -1.840600
C      5.135300   -4.286000   -2.174900
C      5.782900   -3.069300   -2.388300
C      7.086400   -3.149100   -2.838900
C      7.618700   -4.422800   -3.033200
Br     3.352600   -4.287000   -1.559500
N      5.677700   -5.484800   -2.372000
N      6.942900   -5.553700   -2.809400
H      5.281600   -2.130600   -2.207500
H      7.674000   -2.263500   -3.034400
H      8.631400   -4.564900   -3.384000
