22

O      1.225500   -0.000000   -0.000000
C      0.000000   -0.000000   -0.000000
N     -0.713000    0.000000    1.154400
H     -1.712600    0.063700    1.111800
C     -0.806800   -0.008800   -1.275400
C     -0.038900    0.050500    2.435000
H     -0.754300   -0.173300    3.220300
H      0.760300   -0.685200    2.452100
H      0.401600    1.029800    2.616000
H     -1.879900   -0.053500   -1.105800
H     -0.500400   -0.864800   -1.870900
H     -0.569100    0.889100   -1.840600
C      5.005800   -1.286200   -4.737600
C      5.547200   -1.450800   -6.012400
C      6.759300   -2.110700   -6.073800
C      7.314300   -2.541600   -4.869800
Br     3.353400   -0.398000   -4.544400
N      5.566500   -1.712400   -3.608800
N      6.742600   -2.351800   -3.676900
H      5.037100   -1.078900   -6.888000
H      7.261100   -2.288400   -7.014300
H      8.260000   -3.064700   -4.838300
