22

O      1.225500   -0.000000   -0.000000
C      0.000000   -0.000000   -0.000000
N     -0.713000    0.000000    1.154400
H     -1.712600    0.063700    1.111800
C     -0.806800   -0.008800   -1.275400
C     -0.038900    0.050500    2.435000
H     -0.754300   -0.173300    3.220300
H      0.760300   -0.685200    2.452100
H      0.401600    1.029800    2.616000
H     -1.879900   -0.053500   -1.105800
H     -0.500400   -0.864800   -1.870900
H     -0.569100    0.889100   -1.840600
C      3.684100   -4.581000   -4.494700
C      3.796800   -4.240600   -5.842600
C      4.039300   -5.286500   -6.711900
C      4.146100   -6.563100   -6.162200
Br     3.353000   -3.226000   -3.225400
N      3.792200   -5.813900   -4.006700
N      4.027600   -6.823300   -4.856700
H      3.697800   -3.216900   -6.170200
H      4.142900   -5.127200   -7.775700
H      4.335100   -7.430500   -6.779200
