22

O      1.225500   -0.000000   -0.000000
C      0.000000   -0.000000   -0.000000
N     -0.713000    0.000000    1.154400
H     -1.712600    0.063700    1.111800
C     -0.806800   -0.008800   -1.275400
C     -0.038900    0.050500    2.435000
H     -0.754300   -0.173300    3.220300
H      0.760300   -0.685200    2.452100
H      0.401600    1.029800    2.616000
H     -1.879900   -0.053500   -1.105800
H     -0.500400   -0.864800   -1.870900
H     -0.569100    0.889100   -1.840600
C      3.158900    2.000900   -3.614100
C      3.479000    3.326700   -3.906100
C      4.704500    3.534000   -4.509100
C      5.490200    2.410900   -4.763000
Br     1.508200    1.610000   -2.790100
N      3.936800    0.952800   -3.872200
N      5.124300    1.162400   -4.457500
H      2.798900    4.130600   -3.668600
H      5.045000    4.524400   -4.775300
H      6.460800    2.494000   -5.232000
