22

O      1.225500   -0.000000   -0.000000
C      0.000000   -0.000000   -0.000000
N     -0.713000    0.000000    1.154400
H     -1.712600    0.063700    1.111800
C     -0.806800   -0.008800   -1.275400
C     -0.038900    0.050500    2.435000
H     -0.754300   -0.173300    3.220300
H      0.760300   -0.685200    2.452100
H      0.401600    1.029800    2.616000
H     -1.879900   -0.053500   -1.105800
H     -0.500400   -0.864800   -1.870900
H     -0.569100    0.889100   -1.840600
C      5.547000    3.100300   -0.017000
C      6.043000    3.155600   -1.319500
C      7.413300    3.283500   -1.439500
C      8.155400    3.343900   -0.261000
Br     3.689100    2.926100    0.256200
N      6.288600    3.161100    1.085900
N      7.617300    3.285200    0.960900
H      5.382500    3.100500   -2.171400
H      7.895500    3.335200   -2.405200
H      9.231800    3.443800   -0.275100
