22

O      1.225500   -0.000000   -0.000000
C      0.000000   -0.000000   -0.000000
N     -0.713000    0.000000    1.154400
H     -1.712600    0.063700    1.111800
C     -0.806800   -0.008800   -1.275400
C     -0.038900    0.050500    2.435000
H     -0.754300   -0.173300    3.220300
H      0.760300   -0.685200    2.452100
H      0.401600    1.029800    2.616000
H     -1.879900   -0.053500   -1.105800
H     -0.500400   -0.864800   -1.870900
H     -0.569100    0.889100   -1.840600
C      5.130200    0.869700    4.048400
C      6.434600    0.901300    3.555400
C      7.437000    0.981100    4.502600
C      7.050000    1.021600    5.841200
Br     3.688400    0.761300    2.837500
N      4.799300    0.910400    5.336400
N      5.777900    0.987800    6.249200
H      6.631700    0.864700    2.494700
H      8.480400    1.011100    4.222700
H      7.777500    1.084200    6.638500
