22

O      1.225500   -0.000000   -0.000000
C      0.000000   -0.000000   -0.000000
N     -0.713000    0.000000    1.154400
H     -1.712600    0.063700    1.111800
C     -0.806800   -0.008800   -1.275400
C     -0.038900    0.050500    2.435000
H     -0.754300   -0.173300    3.220300
H      0.760300   -0.685200    2.452100
H      0.401600    1.029800    2.616000
H     -1.879900   -0.053500   -1.105800
H     -0.500400   -0.864800   -1.870900
H     -0.569100    0.889100   -1.840600
C      0.804400   -5.454000    0.199200
C      2.154300   -5.789000    0.094300
C      2.690700   -6.479500    1.163800
C      1.839700   -6.769400    2.229200
Br    -0.024300   -4.510400   -1.207700
N      0.022600   -5.748800    1.234600
N      0.550700   -6.418900    2.268400
H      2.730900   -5.517700   -0.777000
H      3.727200   -6.784900    1.179200
H      2.187400   -7.306400    3.100800
