22

O      1.225500   -0.000000   -0.000000
C      0.000000   -0.000000   -0.000000
N     -0.713000    0.000000    1.154400
H     -1.712600    0.063700    1.111800
C     -0.806800   -0.008800   -1.275400
C     -0.038900    0.050500    2.435000
H     -0.754300   -0.173300    3.220300
H      0.760300   -0.685200    2.452100
H      0.401600    1.029800    2.616000
H     -1.879900   -0.053500   -1.105800
H     -0.500400   -0.864800   -1.870900
H     -0.569100    0.889100   -1.840600
C      5.284600    0.033500   -5.372300
C      5.905800    1.085000   -6.046000
C      7.028700    0.753600   -6.779400
C      7.424700   -0.583000   -6.773300
Br     3.743300    0.380000   -4.342300
N      5.693100   -1.232600   -5.390500
N      6.783400   -1.545900   -6.104400
H      5.519700    2.091300   -5.987600
H      7.581400    1.496300   -7.336800
H      8.293200   -0.918000   -7.323300
