22

O      1.225500   -0.000000   -0.000000
C      0.000000   -0.000000   -0.000000
N     -0.713000    0.000000    1.154400
H     -1.712600    0.063700    1.111800
C     -0.806800   -0.008800   -1.275400
C     -0.038900    0.050500    2.435000
H     -0.754300   -0.173300    3.220300
H      0.760300   -0.685200    2.452100
H      0.401600    1.029800    2.616000
H     -1.879900   -0.053500   -1.105800
H     -0.500400   -0.864800   -1.870900
H     -0.569100    0.889100   -1.840600
C      7.686900   -1.710800   -1.597000
C      8.184700   -1.966200   -2.874600
C      9.459200   -2.496000   -2.932100
C     10.113600   -2.719900   -1.721700
Br     5.955600   -0.987000   -1.408800
N      8.343000   -1.938400   -0.462200
N      9.579200   -2.452500   -0.526400
H      7.596500   -1.756900   -3.755200
H      9.934400   -2.729100   -3.874200
H     11.112500   -3.132000   -1.686800
