22

O      1.225500   -0.000000   -0.000000
C      0.000000   -0.000000   -0.000000
N     -0.713000    0.000000    1.154400
H     -1.712600    0.063700    1.111800
C     -0.806800   -0.008800   -1.275400
C     -0.038900    0.050500    2.435000
H     -0.754300   -0.173300    3.220300
H      0.760300   -0.685200    2.452100
H      0.401600    1.029800    2.616000
H     -1.879900   -0.053500   -1.105800
H     -0.500400   -0.864800   -1.870900
H     -0.569100    0.889100   -1.840600
C      0.531300   -4.164300   -2.664000
C     -0.660000   -3.572200   -2.244600
C     -1.437500   -4.322400   -1.383600
C     -0.959900   -5.581600   -1.023800
Br     1.665200   -3.223000   -3.840800
N      0.954400   -5.371300   -2.298000
N      0.194300   -6.092900   -1.462400
H     -0.942600   -2.586600   -2.581800
H     -2.378400   -3.952900   -1.001600
H     -1.512700   -6.225900   -0.354300
