22

O      1.225500   -0.000000   -0.000000
C      0.000000   -0.000000   -0.000000
N     -0.713000    0.000000    1.154400
H     -1.712600    0.063700    1.111800
C     -0.806800   -0.008800   -1.275400
C     -0.038900    0.050500    2.435000
H     -0.754300   -0.173300    3.220300
H      0.760300   -0.685200    2.452100
H      0.401600    1.029800    2.616000
H     -1.879900   -0.053500   -1.105800
H     -0.500400   -0.864800   -1.870900
H     -0.569100    0.889100   -1.840600
C      0.817900    5.341000   -2.423000
C      2.179500    5.044400   -2.484100
C      3.029800    6.127700   -2.593400
C      2.449500    7.394600   -2.631200
Br    -0.427400    3.932700   -2.272900
N      0.300700    6.566100   -2.462100
N      1.132400    7.611900   -2.568200
H      2.531000    4.024500   -2.447000
H      4.101900    6.003700   -2.647600
H      3.050300    8.289500   -2.715700
