22

O      1.225500   -0.000000   -0.000000
C      0.000000   -0.000000   -0.000000
N     -0.713000    0.000000    1.154400
H     -1.712600    0.063700    1.111800
C     -0.806800   -0.008800   -1.275400
C     -0.038900    0.050500    2.435000
H     -0.754300   -0.173300    3.220300
H      0.760300   -0.685200    2.452100
H      0.401600    1.029800    2.616000
H     -1.879900   -0.053500   -1.105800
H     -0.500400   -0.864800   -1.870900
H     -0.569100    0.889100   -1.840600
C      3.773900   -2.639700   -4.258000
C      3.259900   -3.003600   -5.502500
C      3.618700   -4.256000   -5.962000
C      4.449000   -5.022700   -5.145800
Br     3.343900   -0.949500   -3.540400
N      4.565300   -3.400600   -3.506400
N      4.908800   -4.614500   -3.959300
H      2.621700   -2.335200   -6.060200
H      3.272700   -4.631100   -6.914600
H      4.771900   -6.012300   -5.438100
