22

O      1.225500   -0.000000   -0.000000
C      0.000000   -0.000000   -0.000000
N     -0.713000    0.000000    1.154400
H     -1.712600    0.063700    1.111800
C     -0.806800   -0.008800   -1.275400
C     -0.038900    0.050500    2.435000
H     -0.754300   -0.173300    3.220300
H      0.760300   -0.685200    2.452100
H      0.401600    1.029800    2.616000
H     -1.879900   -0.053500   -1.105800
H     -0.500400   -0.864800   -1.870900
H     -0.569100    0.889100   -1.840600
C      4.931900    3.351200   -3.015300
C      5.479600    4.000300   -1.908900
C      6.643200    4.708600   -2.138300
C      7.148600    4.704300   -3.437500
Br     3.343100    2.356400   -2.808500
N      5.444400    3.370200   -4.242900
N      6.573700    4.059700   -4.457300
H      5.010000    3.942700   -0.938700
H      7.145400    5.245900   -1.346600
H      8.054700    5.235700   -3.693600
