22

O      1.225500   -0.000000   -0.000000
C      0.000000   -0.000000   -0.000000
N     -0.713000    0.000000    1.154400
H     -1.712600    0.063700    1.111800
C     -0.806800   -0.008800   -1.275400
C     -0.038900    0.050500    2.435000
H     -0.754300   -0.173300    3.220300
H      0.760300   -0.685200    2.452100
H      0.401600    1.029800    2.616000
H     -1.879900   -0.053500   -1.105800
H     -0.500400   -0.864800   -1.870900
H     -0.569100    0.889100   -1.840600
C      5.394000    2.419600   -0.621700
C      5.938600    3.012100   -1.760900
C      7.174000    3.609000   -1.600000
C      7.746900    3.560500   -0.330000
Br     3.710500    1.577200   -0.734800
N      5.972300    2.393400    0.576200
N      7.171000    2.974900    0.724100
H      5.413500    2.996400   -2.703800
H      7.680200    4.095200   -2.421700
H      8.711200    4.005400   -0.127300
