22

O      1.225500   -0.000000   -0.000000
C      0.000000   -0.000000   -0.000000
N     -0.713000    0.000000    1.154400
H     -1.712600    0.063700    1.111800
C     -0.806800   -0.008800   -1.275400
C     -0.038900    0.050500    2.435000
H     -0.754300   -0.173300    3.220300
H      0.760300   -0.685200    2.452100
H      0.401600    1.029800    2.616000
H     -1.879900   -0.053500   -1.105800
H     -0.500400   -0.864800   -1.870900
H     -0.569100    0.889100   -1.840600
C      6.367400    1.754000   -0.836700
C      6.619600    3.112000   -1.031200
C      7.907600    3.439800   -1.408100
C      8.816600    2.393200   -1.554900
Br     4.639900    1.200900   -0.320600
N      7.263100    0.781800   -0.986800
N      8.510700    1.108100   -1.352700
H      5.843900    3.849600   -0.891500
H      8.203700    4.464200   -1.583300
H      9.842100    2.571700   -1.847300
