22

O      1.225500   -0.000000   -0.000000
C      0.000000   -0.000000   -0.000000
N     -0.713000    0.000000    1.154400
H     -1.712600    0.063700    1.111800
C     -0.806800   -0.008800   -1.275400
C     -0.038900    0.050500    2.435000
H     -0.754300   -0.173300    3.220300
H      0.760300   -0.685200    2.452100
H      0.401600    1.029800    2.616000
H     -1.879900   -0.053500   -1.105800
H     -0.500400   -0.864800   -1.870900
H     -0.569100    0.889100   -1.840600
C      4.120400    0.760700    5.608300
C      4.830300    1.709400    4.872500
C      5.670200    2.532200    5.597800
C      5.724100    2.335000    6.976700
Br     2.946100   -0.412000    4.712500
N      4.198400    0.602300    6.926900
N      5.015600    1.404600    7.623500
H      4.718800    1.783100    3.801400
H      6.263400    3.299200    5.120700
H      6.358000    2.939900    7.610100
