22

O      1.225500   -0.000000   -0.000000
C      0.000000   -0.000000   -0.000000
N     -0.713000    0.000000    1.154400
H     -1.712600    0.063700    1.111800
C     -0.806800   -0.008800   -1.275400
C     -0.038900    0.050500    2.435000
H     -0.754300   -0.173300    3.220300
H      0.760300   -0.685200    2.452100
H      0.401600    1.029800    2.616000
H     -1.879900   -0.053500   -1.105800
H     -0.500400   -0.864800   -1.870900
H     -0.569100    0.889100   -1.840600
C      4.720300    1.671100    4.127500
C      4.501200    3.032000    4.340700
C      5.295100    3.628900    5.300900
C      6.225200    2.821400    5.953700
Br     3.688400    0.761300    2.837500
N      5.619700    0.932200    4.771900
N      6.386000    1.518800    5.702100
H      3.752600    3.571500    3.780700
H      5.202900    4.678700    5.540200
H      6.881100    3.217400    6.716500
