22

O      1.225500   -0.000000   -0.000000
C      0.000000   -0.000000   -0.000000
N     -0.713000    0.000000    1.154400
H     -1.712600    0.063700    1.111800
C     -0.806800   -0.008800   -1.275400
C     -0.038900    0.050500    2.435000
H     -0.754300   -0.173300    3.220300
H      0.760300   -0.685200    2.452100
H      0.401600    1.029800    2.616000
H     -1.879900   -0.053500   -1.105800
H     -0.500400   -0.864800   -1.870900
H     -0.569100    0.889100   -1.840600
C      4.196600    2.947900   -1.429500
C      4.534600    3.859900   -0.429800
C      5.232300    4.978400   -0.842600
C      5.525700    5.083400   -2.201400
Br     3.243200    1.386800   -0.970600
N      4.494900    3.082900   -2.719100
N      5.172000    4.171100   -3.111600
H      4.260100    3.687000    0.599700
H      5.540500    5.744000   -0.145000
H      6.068300    5.929800   -2.599000
