22

O      1.225500   -0.000000   -0.000000
C      0.000000   -0.000000   -0.000000
N     -0.713000    0.000000    1.154400
H     -1.712600    0.063700    1.111800
C     -0.806800   -0.008800   -1.275400
C     -0.038900    0.050500    2.435000
H     -0.754300   -0.173300    3.220300
H      0.760300   -0.685200    2.452100
H      0.401600    1.029800    2.616000
H     -1.879900   -0.053500   -1.105800
H     -0.500400   -0.864800   -1.870900
H     -0.569100    0.889100   -1.840600
C      3.620800   -1.691100   -5.083000
C      4.451000   -0.882000   -4.307500
C      5.544300   -0.340500   -4.955700
C      5.707100   -0.653000   -6.304500
Br     2.100400   -2.479000   -4.292800
N      3.809300   -1.966900   -6.370800
N      4.872400   -1.437700   -6.992500
H      4.238000   -0.699800   -3.265100
H      6.247700    0.299800   -4.442900
H      6.538300   -0.266700   -6.878000
