22

O      1.225500   -0.000000   -0.000000
C      0.000000   -0.000000   -0.000000
N     -0.713000    0.000000    1.154400
H     -1.712600    0.063700    1.111800
C     -0.806800   -0.008800   -1.275400
C     -0.038900    0.050500    2.435000
H     -0.754300   -0.173300    3.220300
H      0.760300   -0.685200    2.452100
H      0.401600    1.029800    2.616000
H     -1.879900   -0.053500   -1.105800
H     -0.500400   -0.864800   -1.870900
H     -0.569100    0.889100   -1.840600
C      3.766800    3.996000    4.745700
C      4.293900    5.285700    4.680100
C      5.195100    5.621600    5.671800
C      5.484700    4.649800    6.628300
Br     2.527400    3.438000    3.438400
N      4.068200    3.094200    5.676300
N      4.943500    3.427900    6.635100
H      4.004600    5.967900    3.895200
H      5.659500    6.596700    5.709300
H      6.179900    4.839200    7.434400
