22

O      1.225500   -0.000000   -0.000000
C      0.000000   -0.000000   -0.000000
N     -0.713000    0.000000    1.154400
H     -1.712600    0.063700    1.111800
C     -0.806800   -0.008800   -1.275400
C     -0.038900    0.050500    2.435000
H     -0.754300   -0.173300    3.220300
H      0.760300   -0.685200    2.452100
H      0.401600    1.029800    2.616000
H     -1.879900   -0.053500   -1.105800
H     -0.500400   -0.864800   -1.870900
H     -0.569100    0.889100   -1.840600
C      4.343900    3.865200    3.711300
C      5.180400    4.026600    2.607000
C      6.496900    4.338600    2.886300
C      6.854300    4.459500    4.228300
Br     2.527400    3.438000    3.438400
N      4.722500    3.989000    4.980800
N      6.001500    4.291800    5.243400
H      4.805900    3.911300    1.601200
H      7.224200    4.483900    2.100400
H      7.865600    4.701500    4.524500
