22

O      1.225500   -0.000000   -0.000000
C      0.000000   -0.000000   -0.000000
N     -0.713000    0.000000    1.154400
H     -1.712600    0.063700    1.111800
C     -0.806800   -0.008800   -1.275400
C     -0.038900    0.050500    2.435000
H     -0.754300   -0.173300    3.220300
H      0.760300   -0.685200    2.452100
H      0.401600    1.029800    2.616000
H     -1.879900   -0.053500   -1.105800
H     -0.500400   -0.864800   -1.870900
H     -0.569100    0.889100   -1.840600
C      5.839100    1.759900    1.060200
C      5.923600    3.125100    1.332700
C      7.107700    3.556500    1.898600
C      8.089000    2.595800    2.138200
Br     4.263800    1.068900    0.287100
N      6.799200    0.871600    1.303700
N      7.945200    1.298200    1.852900
H      5.104000    3.791000    1.108800
H      7.271900    4.595200    2.147300
H      9.041100    2.857600    2.578400
