22

O      1.225500   -0.000000   -0.000000
C      0.000000   -0.000000   -0.000000
N     -0.713000    0.000000    1.154400
H     -1.712600    0.063700    1.111800
C     -0.806800   -0.008800   -1.275400
C     -0.038900    0.050500    2.435000
H     -0.754300   -0.173300    3.220300
H      0.760300   -0.685200    2.452100
H      0.401600    1.029800    2.616000
H     -1.879900   -0.053500   -1.105800
H     -0.500400   -0.864800   -1.870900
H     -0.569100    0.889100   -1.840600
C      4.681500    4.256000   -0.398800
C      5.172800    4.808300   -1.581700
C      5.986500    5.915500   -1.439600
C      6.233000    6.365600   -0.143500
Br     3.560900    2.741500   -0.483200
N      4.939500    4.714800    0.823100
N      5.730000    5.789600    0.952500
H      4.922600    4.383900   -2.542200
H      6.417100    6.416200   -2.295000
H      6.859700    7.225800    0.046800
