22

O      1.225500   -0.000000   -0.000000
C      0.000000   -0.000000   -0.000000
N     -0.713000    0.000000    1.154400
H     -1.712600    0.063700    1.111800
C     -0.806800   -0.008800   -1.275400
C     -0.038900    0.050500    2.435000
H     -0.754300   -0.173300    3.220300
H      0.760300   -0.685200    2.452100
H      0.401600    1.029800    2.616000
H     -1.879900   -0.053500   -1.105800
H     -0.500400   -0.864800   -1.870900
H     -0.569100    0.889100   -1.840600
C      1.046300    6.033200    1.207000
C      1.267900    6.963900    0.192100
C      1.700100    8.211200    0.599500
C      1.869900    8.413400    1.968300
Br     0.454600    4.300100    0.756700
N      1.219800    6.263700    2.505800
N      1.639400    7.476500    2.893000
H      1.106600    6.709000   -0.844300
H      1.900000    9.001600   -0.109800
H      2.205200    9.362600    2.362400
