22

O      1.225500   -0.000000   -0.000000
C      0.000000   -0.000000   -0.000000
N     -0.713000    0.000000    1.154400
H     -1.712600    0.063700    1.111800
C     -0.806800   -0.008800   -1.275400
C     -0.038900    0.050500    2.435000
H     -0.754300   -0.173300    3.220300
H      0.760300   -0.685200    2.452100
H      0.401600    1.029800    2.616000
H     -1.879900   -0.053500   -1.105800
H     -0.500400   -0.864800   -1.870900
H     -0.569100    0.889100   -1.840600
C      6.098000   -0.072400    4.022300
C      6.082600   -0.425600    5.371500
C      7.183300   -1.126100    5.825600
C      8.188200   -1.407100    4.901100
Br     4.641900    0.886100    3.302700
N      7.077500   -0.359100    3.168900
N      8.142100   -1.039100    3.617300
H      5.253000   -0.159800    6.008900
H      7.267100   -1.445600    6.854500
H      9.079200   -1.951000    5.182300
