22

O      1.225500   -0.000000   -0.000000
C      0.000000   -0.000000   -0.000000
N     -0.713000    0.000000    1.154400
H     -1.712600    0.063700    1.111800
C     -0.806800   -0.008800   -1.275400
C     -0.038900    0.050500    2.435000
H     -0.754300   -0.173300    3.220300
H      0.760300   -0.685200    2.452100
H      0.401600    1.029800    2.616000
H     -1.879900   -0.053500   -1.105800
H     -0.500400   -0.864800   -1.870900
H     -0.569100    0.889100   -1.840600
C     -3.553200   -3.817800    0.418400
C     -3.528400   -4.329900   -0.878700
C     -4.396200   -5.374200   -1.133100
C     -5.201000   -5.807400   -0.080500
Br    -2.406300   -2.390100    0.869000
N     -4.337200   -4.258700    1.398700
N     -5.176400   -5.272400    1.143900
H     -2.865100   -3.923200   -1.627000
H     -4.453000   -5.840000   -2.106500
H     -5.904300   -6.619300   -0.203500
