22

O      1.225500   -0.000000   -0.000000
C      0.000000   -0.000000   -0.000000
N     -0.713000    0.000000    1.154400
H     -1.712600    0.063700    1.111800
C     -0.806800   -0.008800   -1.275400
C     -0.038900    0.050500    2.435000
H     -0.754300   -0.173300    3.220300
H      0.760300   -0.685200    2.452100
H      0.401600    1.029800    2.616000
H     -1.879900   -0.053500   -1.105800
H     -0.500400   -0.864800   -1.870900
H     -0.569100    0.889100   -1.840600
C      3.329400    1.603900   -4.135200
C      3.949300    2.730900   -3.595600
C      5.046000    3.207100   -4.287500
C      5.419800    2.522200   -5.442700
Br     1.822900    0.874400   -3.266300
N      3.716200    0.976100   -5.242600
N      4.781300    1.444500   -5.908200
H      3.581600    3.191100   -2.691100
H      5.595300    4.074900   -3.951500
H      6.267200    2.835500   -6.036600
