22

O      1.225500   -0.000000   -0.000000
C      0.000000   -0.000000   -0.000000
N     -0.713000    0.000000    1.154400
H     -1.712600    0.063700    1.111800
C     -0.806800   -0.008800   -1.275400
C     -0.038900    0.050500    2.435000
H     -0.754300   -0.173300    3.220300
H      0.760300   -0.685200    2.452100
H      0.401600    1.029800    2.616000
H     -1.879900   -0.053500   -1.105800
H     -0.500400   -0.864800   -1.870900
H     -0.569100    0.889100   -1.840600
C      2.761800    5.604100    2.597700
C      2.727100    6.290400    3.811400
C      2.642400    7.666600    3.725500
C      2.600500    8.226100    2.449400
Br     2.877000    3.721700    2.605000
N      2.719700    6.174300    1.396400
N      2.637500    7.510100    1.321500
H      2.765000    5.763000    4.752500
H      2.609600    8.288900    4.608400
H      2.534200    9.295100    2.302500
