22

O      1.225500   -0.000000   -0.000000
C      0.000000   -0.000000   -0.000000
N     -0.713000    0.000000    1.154400
H     -1.712600    0.063700    1.111800
C     -0.806800   -0.008800   -1.275400
C     -0.038900    0.050500    2.435000
H     -0.754300   -0.173300    3.220300
H      0.760300   -0.685200    2.452100
H      0.401600    1.029800    2.616000
H     -1.879900   -0.053500   -1.105800
H     -0.500400   -0.864800   -1.870900
H     -0.569100    0.889100   -1.840600
C     -2.229200   -5.473700    1.241500
C     -2.746500   -5.490300   -0.053700
C     -3.419900   -6.639300   -0.421000
C     -3.514400   -7.655900    0.528100
Br    -1.292200   -3.951000    1.841500
N     -2.339900   -6.465900    2.120900
N     -2.994800   -7.577400    1.756800
H     -2.619500   -4.647900   -0.716500
H     -3.857500   -6.750700   -1.402800
H     -4.026000   -8.583900    0.313600
