22

O      1.225500   -0.000000   -0.000000
C      0.000000   -0.000000   -0.000000
N     -0.713000    0.000000    1.154400
H     -1.712600    0.063700    1.111800
C     -0.806800   -0.008800   -1.275400
C     -0.038900    0.050500    2.435000
H     -0.754300   -0.173300    3.220300
H      0.760300   -0.685200    2.452100
H      0.401600    1.029800    2.616000
H     -1.879900   -0.053500   -1.105800
H     -0.500400   -0.864800   -1.870900
H     -0.569100    0.889100   -1.840600
C      4.391900   -1.071200    3.313600
C      5.340500   -0.175500    3.806900
C      6.156300   -0.652800    4.814400
C      5.952800   -1.966900    5.233000
Br     3.228500   -0.517700    1.936400
N      4.227400   -2.320800    3.739700
N      5.023000   -2.776500    4.717500
H      5.419300    0.826900    3.414100
H      6.922500   -0.037000    5.263200
H      6.552100   -2.410000    6.016300
