22

O      1.225500   -0.000000   -0.000000
C      0.000000   -0.000000   -0.000000
N     -0.713000    0.000000    1.154400
H     -1.712600    0.063700    1.111800
C     -0.806800   -0.008800   -1.275400
C     -0.038900    0.050500    2.435000
H     -0.754300   -0.173300    3.220300
H      0.760300   -0.685200    2.452100
H      0.401600    1.029800    2.616000
H     -1.879900   -0.053500   -1.105800
H     -0.500400   -0.864800   -1.870900
H     -0.569100    0.889100   -1.840600
C      5.931800   -2.090300   -2.860900
C      6.613700   -1.091400   -3.555700
C      7.788500   -1.477600   -4.171600
C      8.171100   -2.811500   -4.039100
Br     4.316600   -1.666600   -1.984500
N      6.329500   -3.355600   -2.756600
N      7.470400   -3.722400   -3.357100
H      6.232900   -0.082300   -3.599700
H      8.390100   -0.778200   -4.734400
H      9.077600   -3.187500   -4.492900
