22

O      1.225500   -0.000000   -0.000000
C      0.000000   -0.000000   -0.000000
N     -0.713000    0.000000    1.154400
H     -1.712600    0.063700    1.111800
C     -0.806800   -0.008800   -1.275400
C     -0.038900    0.050500    2.435000
H     -0.754300   -0.173300    3.220300
H      0.760300   -0.685200    2.452100
H      0.401600    1.029800    2.616000
H     -1.879900   -0.053500   -1.105800
H     -0.500400   -0.864800   -1.870900
H     -0.569100    0.889100   -1.840600
C     -0.464500   -4.878300    0.091100
C     -0.631300   -5.489900   -1.151400
C     -1.657800   -6.410200   -1.239200
C     -2.416000   -6.633700   -0.090900
Br     0.909300   -3.606100    0.316400
N     -1.210000   -5.118200    1.166600
N     -2.204000   -6.012600    1.073200
H      0.011500   -5.247300   -1.983900
H     -1.868800   -6.938200   -2.158100
H     -3.235400   -7.339000   -0.082800
