22

O      1.225500   -0.000000   -0.000000
C      0.000000   -0.000000   -0.000000
N     -0.713000    0.000000    1.154400
H     -1.712600    0.063700    1.111800
C     -0.806800   -0.008800   -1.275400
C     -0.038900    0.050500    2.435000
H     -0.754300   -0.173300    3.220300
H      0.760300   -0.685200    2.452100
H      0.401600    1.029800    2.616000
H     -1.879900   -0.053500   -1.105800
H     -0.500400   -0.864800   -1.870900
H     -0.569100    0.889100   -1.840600
C      4.727700    0.060600    3.977200
C      5.153300    1.295900    4.465600
C      5.937100    1.258900    5.602500
C      6.221600    0.005600    6.142400
Br     3.652500    0.001100    2.429000
N      5.020400   -1.117700    4.521400
N      5.781500   -1.145000    5.624400
H      4.877900    2.216000    3.972900
H      6.317000    2.161800    6.058900
H      6.828300   -0.103000    7.030700
