22

O      1.224000    0.000000    0.000000
C      0.000000    0.000000    0.000000
N     -0.718000    0.000000    1.154000
H     -1.717000    0.061000    1.108000
C     -0.809000   -0.010000   -1.276000
C     -0.049000    0.046000    2.436000
H     -0.777000   -0.133000    3.221000
H      0.720000   -0.720000    2.476000
H      0.429000    1.010000    2.602000
H     -1.882000   -0.038000   -1.106000
H     -0.515000   -0.876000   -1.863000
H     -0.559000    0.879000   -1.850000
C     -0.756600   -1.285800   -3.592500
C     -0.965300   -0.963600   -4.933400
C      0.166900   -0.895300   -5.722000
C      1.391100   -1.152100   -5.106600
Br    -2.237300   -1.404500   -2.430600
N      0.430000   -1.524700   -3.040200
N      1.523700   -1.456500   -3.812200
H     -1.958100   -0.781600   -5.315900
H      0.111500   -0.653100   -6.773700
H      2.319900   -1.117400   -5.658900
