22

O      1.224000    0.000000    0.000000
C      0.000000    0.000000    0.000000
N     -0.718000    0.000000    1.154000
H     -1.717000    0.061000    1.108000
C     -0.809000   -0.010000   -1.276000
C     -0.049000    0.046000    2.436000
H     -0.777000   -0.133000    3.221000
H      0.720000   -0.720000    2.476000
H      0.429000    1.010000    2.602000
H     -1.882000   -0.038000   -1.106000
H     -0.515000   -0.876000   -1.863000
H     -0.559000    0.879000   -1.850000
C      3.995900    0.676500    0.250700
C      4.423700   -0.632900    0.031500
C      5.268000   -0.820600   -1.045700
C      5.604700    0.303900   -1.797700
Br     2.840400    1.039900    1.696200
N      4.339600    1.726400   -0.490600
N      5.159200    1.536000   -1.534000
H      4.104900   -1.439500    0.674100
H      5.654800   -1.797200   -1.299500
H      6.260200    0.235600   -2.654700
