22

O      1.225500   -0.000000   -0.000000
C      0.000000   -0.000000   -0.000000
N     -0.713000    0.000000    1.154400
H     -1.712600    0.063700    1.111800
C     -0.806800   -0.008800   -1.275400
C     -0.038900    0.050500    2.435000
H     -0.754300   -0.173300    3.220300
H      0.760300   -0.685200    2.452100
H      0.401600    1.029800    2.616000
H     -1.879900   -0.053500   -1.105800
H     -0.500400   -0.864800   -1.870900
H     -0.569100    0.889100   -1.840600
C      0.889200    4.447900    0.376800
C      0.774500    5.172400    1.563200
C      0.528500    6.524600    1.424300
C      0.420600    7.024900    0.127600
Br     1.224900    2.593800    0.456600
N      0.779800    4.961800   -0.845500
N      0.541000    6.274700   -0.971700
H      0.874600    4.690300    2.523800
H      0.423200    7.172800    2.282500
H      0.229000    8.072200   -0.060300
