22

O      1.225500   -0.000000   -0.000000
C      0.000000   -0.000000   -0.000000
N     -0.713000    0.000000    1.154400
H     -1.712600    0.063700    1.111800
C     -0.806800   -0.008800   -1.275400
C     -0.038900    0.050500    2.435000
H     -0.754300   -0.173300    3.220300
H      0.760300   -0.685200    2.452100
H      0.401600    1.029800    2.616000
H     -1.879900   -0.053500   -1.105800
H     -0.500400   -0.864800   -1.870900
H     -0.569100    0.889100   -1.840600
C      5.679600   -2.192300   -2.728600
C      6.896700   -1.513600   -2.788600
C      8.024900   -2.303700   -2.894100
C      7.837300   -3.684600   -2.929800
Br     4.079000   -1.205600   -2.583500
N      5.540200   -3.514900   -2.765500
N      6.639700   -4.274500   -2.868000
H      6.937200   -0.435500   -2.753400
H      9.015100   -1.874100   -2.947300
H      8.672000   -4.366800   -3.011400
