22

O      1.225500   -0.000000   -0.000000
C      0.000000   -0.000000   -0.000000
N     -0.713000    0.000000    1.154400
H     -1.712600    0.063700    1.111800
C     -0.806800   -0.008800   -1.275400
C     -0.038900    0.050500    2.435000
H     -0.754300   -0.173300    3.220300
H      0.760300   -0.685200    2.452100
H      0.401600    1.029800    2.616000
H     -1.879900   -0.053500   -1.105800
H     -0.500400   -0.864800   -1.870900
H     -0.569100    0.889100   -1.840600
C      1.841300    3.262900   -4.654000
C      0.767500    3.964200   -5.202200
C      1.050800    4.728200   -6.317800
C      2.366200    4.722500   -6.779300
Br     1.560500    2.189700   -3.128900
N      3.085900    3.282400   -5.123900
N      3.352600    4.026200   -6.206600
H     -0.219100    3.902800   -4.768800
H      0.287600    5.308700   -6.816200
H      2.663700    5.295600   -7.646500
