22

O      1.225500   -0.000000   -0.000000
C      0.000000   -0.000000   -0.000000
N     -0.713000    0.000000    1.154400
H     -1.712600    0.063700    1.111800
C     -0.806800   -0.008800   -1.275400
C     -0.038900    0.050500    2.435000
H     -0.754300   -0.173300    3.220300
H      0.760300   -0.685200    2.452100
H      0.401600    1.029800    2.616000
H     -1.879900   -0.053500   -1.105800
H     -0.500400   -0.864800   -1.870900
H     -0.569100    0.889100   -1.840600
C     -4.393500    3.384500   -0.336400
C     -4.614900    4.446800   -1.212700
C     -5.398500    5.476500   -0.728900
C     -5.884500    5.353100    0.571800
Br    -3.336500    1.928000   -0.900100
N     -4.875500    3.302200    0.901000
N     -5.635000    4.305400    1.363000
H     -4.192000    4.448700   -2.205900
H     -5.628500    6.344600   -1.330000
H     -6.504100    6.118000    1.018900
