22

O      1.225500   -0.000000   -0.000000
C      0.000000   -0.000000   -0.000000
N     -0.713000    0.000000    1.154400
H     -1.712600    0.063700    1.111800
C     -0.806800   -0.008800   -1.275400
C     -0.038900    0.050500    2.435000
H     -0.754300   -0.173300    3.220300
H      0.760300   -0.685200    2.452100
H      0.401600    1.029800    2.616000
H     -1.879900   -0.053500   -1.105800
H     -0.500400   -0.864800   -1.870900
H     -0.569100    0.889100   -1.840600
C     -4.088300    3.654000   -0.788900
C     -4.546000    4.275200   -1.950800
C     -5.083500    5.537600   -1.789800
C     -5.114700    6.059100   -0.497400
Br    -3.336500    1.928000   -0.900100
N     -4.135100    4.184800    0.430200
N     -4.658200    5.410100    0.578000
H     -4.477100    3.785300   -2.910200
H     -5.465600    6.102300   -2.628200
H     -5.520200    7.040300   -0.293100
