22

O      1.225500   -0.000000   -0.000000
C      0.000000   -0.000000   -0.000000
N     -0.713000    0.000000    1.154400
H     -1.712600    0.063700    1.111800
C     -0.806800   -0.008800   -1.275400
C     -0.038900    0.050500    2.435000
H     -0.754300   -0.173300    3.220300
H      0.760300   -0.685200    2.452100
H      0.401600    1.029800    2.616000
H     -1.879900   -0.053500   -1.105800
H     -0.500400   -0.864800   -1.870900
H     -0.569100    0.889100   -1.840600
C      4.057700    0.822300   -5.874400
C      4.689300    2.055000   -5.710400
C      5.801600    2.274200   -6.499800
C      6.177900    1.253600   -7.371600
Br     2.529500    0.424000   -4.843600
N      4.447300   -0.129000   -6.718900
N      5.527500    0.091300   -7.481400
H      4.318500    2.782900   -5.004800
H      6.360900    3.197300   -6.447600
H      7.037100    1.352200   -8.020400
