22

O      1.225500   -0.000000   -0.000000
C      0.000000   -0.000000   -0.000000
N     -0.713000    0.000000    1.154400
H     -1.712600    0.063700    1.111800
C     -0.806800   -0.008800   -1.275400
C     -0.038900    0.050500    2.435000
H     -0.754300   -0.173300    3.220300
H      0.760300   -0.685200    2.452100
H      0.401600    1.029800    2.616000
H     -1.879900   -0.053500   -1.105800
H     -0.500400   -0.864800   -1.870900
H     -0.569100    0.889100   -1.840600
C      3.627900    5.692200   -2.037100
C      4.045000    6.527100   -3.073600
C      4.847400    7.590400   -2.707700
C      5.156800    7.722000   -1.354800
Br     2.528900    4.211000   -2.430600
N      3.944600    5.850400   -0.754600
N      4.723500    6.884600   -0.407700
H      3.749800    6.339600   -4.094800
H      5.222700    8.294600   -3.436400
H      5.779000    8.528700   -0.992900
