22

O      1.225500   -0.000000   -0.000000
C      0.000000   -0.000000   -0.000000
N     -0.713000    0.000000    1.154400
H     -1.712600    0.063700    1.111800
C     -0.806800   -0.008800   -1.275400
C     -0.038900    0.050500    2.435000
H     -0.754300   -0.173300    3.220300
H      0.760300   -0.685200    2.452100
H      0.401600    1.029800    2.616000
H     -1.879900   -0.053500   -1.105800
H     -0.500400   -0.864800   -1.870900
H     -0.569100    0.889100   -1.840600
C      4.332500    4.534700    2.810400
C      5.273300    5.527000    2.535400
C      6.079400    5.905100    3.591700
C      5.874900    5.265000    4.813000
Br     3.182600    3.947000    1.436000
N      4.166700    3.945900    3.991900
N      4.952800    4.318300    5.011700
H      5.353800    5.962900    1.551200
H      6.839200    6.665600    3.481200
H      6.466800    5.507500    5.684700
