22

O      1.225500   -0.000000   -0.000000
C      0.000000   -0.000000   -0.000000
N     -0.713000    0.000000    1.154400
H     -1.712600    0.063700    1.111800
C     -0.806800   -0.008800   -1.275400
C     -0.038900    0.050500    2.435000
H     -0.754300   -0.173300    3.220300
H      0.760300   -0.685200    2.452100
H      0.401600    1.029800    2.616000
H     -1.879900   -0.053500   -1.105800
H     -0.500400   -0.864800   -1.870900
H     -0.569100    0.889100   -1.840600
C      4.919700    3.133400   -2.452300
C      5.154600    4.430100   -1.995400
C      5.826600    5.265500   -2.866500
C      6.198900    4.735900   -4.101000
Br     4.009200    1.913400   -1.339100
N      5.291200    2.663200   -3.640200
N      5.942900    3.480100   -4.479600
H      4.824500    4.745900   -1.017400
H      6.057000    6.288800   -2.606500
H      6.727400    5.328800   -4.834500
