22

O      1.225500   -0.000000   -0.000000
C      0.000000   -0.000000   -0.000000
N     -0.713000    0.000000    1.154400
H     -1.712600    0.063700    1.111800
C     -0.806800   -0.008800   -1.275400
C     -0.038900    0.050500    2.435000
H     -0.754300   -0.173300    3.220300
H      0.760300   -0.685200    2.452100
H      0.401600    1.029800    2.616000
H     -1.879900   -0.053500   -1.105800
H     -0.500400   -0.864800   -1.870900
H     -0.569100    0.889100   -1.840600
C      6.831900   -2.631400    0.173800
C      7.036600   -3.269200    1.397200
C      7.513600   -4.564000    1.331600
C      7.740500   -5.098200    0.064100
Br     6.182300   -0.861000    0.153300
N      7.060500   -3.175300   -1.018700
N      7.523300   -4.432100   -1.073900
H      6.829700   -2.767200    2.330100
H      7.704900   -5.143600    2.223300
H      8.113200   -6.104600   -0.066900
