22

O      1.225500   -0.000000   -0.000000
C      0.000000   -0.000000   -0.000000
N     -0.713000    0.000000    1.154400
H     -1.712600    0.063700    1.111800
C     -0.806800   -0.008800   -1.275400
C     -0.038900    0.050500    2.435000
H     -0.754300   -0.173300    3.220300
H      0.760300   -0.685200    2.452100
H      0.401600    1.029800    2.616000
H     -1.879900   -0.053500   -1.105800
H     -0.500400   -0.864800   -1.870900
H     -0.569100    0.889100   -1.840600
C      4.313800   -5.291900    2.185700
C      4.478000   -5.359800    3.569200
C      4.356000   -6.615700    4.131500
C      4.084100   -7.677900    3.270600
Br     4.461000   -3.623000    1.319800
N      4.054500   -6.330400    1.395600
N      3.937600   -7.545600    1.948900
H      4.687400   -4.474800    4.150700
H      4.465900   -6.773900    5.194800
H      3.975000   -8.689200    3.637200
