22

O      1.225500   -0.000000   -0.000000
C      0.000000   -0.000000   -0.000000
N     -0.713000    0.000000    1.154400
H     -1.712600    0.063700    1.111800
C     -0.806800   -0.008800   -1.275400
C     -0.038900    0.050500    2.435000
H     -0.754300   -0.173300    3.220300
H      0.760300   -0.685200    2.452100
H      0.401600    1.029800    2.616000
H     -1.879900   -0.053500   -1.105800
H     -0.500400   -0.864800   -1.870900
H     -0.569100    0.889100   -1.840600
C      0.910900    6.718300    1.413500
C      1.996500    7.593400    1.446200
C      1.687400    8.937400    1.527500
C      0.337100    9.281400    1.568200
Br     1.225000    4.862000    1.303100
N     -0.367300    7.085200    1.454400
N     -0.658900    8.391100    1.533200
H      3.010900    7.226300    1.409500
H      2.457000    9.695300    1.558500
H      0.017900   10.312400    1.631800
