22

O      1.225500   -0.000000   -0.000000
C      0.000000   -0.000000   -0.000000
N     -0.713000    0.000000    1.154400
H     -1.712600    0.063700    1.111800
C     -0.806800   -0.008800   -1.275400
C     -0.038900    0.050500    2.435000
H     -0.754300   -0.173300    3.220300
H      0.760300   -0.685200    2.452100
H      0.401600    1.029800    2.616000
H     -1.879900   -0.053500   -1.105800
H     -0.500400   -0.864800   -1.870900
H     -0.569100    0.889100   -1.840600
C     -0.834600    5.666600   -2.478600
C     -0.173700    6.555300   -1.630700
C      0.127400    7.792100   -2.167400
C     -0.254500    8.026500   -3.487400
Br    -1.291300    3.951000   -1.842500
N     -1.183500    5.927000   -3.735800
N     -0.887700    7.129400   -4.249100
H      0.079900    6.277700   -0.618900
H      0.638200    8.550800   -1.591700
H     -0.053100    8.970000   -3.975400
