22

O      1.225500   -0.000000   -0.000000
C      0.000000   -0.000000   -0.000000
N     -0.713000    0.000000    1.154400
H     -1.712600    0.063700    1.111800
C     -0.806800   -0.008800   -1.275400
C     -0.038900    0.050500    2.435000
H     -0.754300   -0.173300    3.220300
H      0.760300   -0.685200    2.452100
H      0.401600    1.029800    2.616000
H     -1.879900   -0.053500   -1.105800
H     -0.500400   -0.864800   -1.870900
H     -0.569100    0.889100   -1.840600
C     -0.942800    6.212300   -0.001200
C     -0.810800    6.882400    1.214900
C     -0.556100    8.237800    1.133800
C     -0.457300    8.794500   -0.140400
Br    -1.291700    4.359000   -0.000500
N     -0.841700    6.779400   -1.200500
N     -0.594400    8.094900   -1.270700
H     -0.905000    6.358800    2.154100
H     -0.437300    8.846300    2.018900
H     -0.259700    9.847800   -0.283500
