22

O      1.225500   -0.000000   -0.000000
C      0.000000   -0.000000   -0.000000
N     -0.713000    0.000000    1.154400
H     -1.712600    0.063700    1.111800
C     -0.806800   -0.008800   -1.275400
C     -0.038900    0.050500    2.435000
H     -0.754300   -0.173300    3.220300
H      0.760300   -0.685200    2.452100
H      0.401600    1.029800    2.616000
H     -1.879900   -0.053500   -1.105800
H     -0.500400   -0.864800   -1.870900
H     -0.569100    0.889100   -1.840600
C     -0.763100    5.409700   -2.914800
C      0.521600    5.933100   -2.770200
C      0.835500    7.000100   -3.589700
C     -0.151400    7.442500   -4.469300
Br    -1.291300    3.951000   -1.842500
N     -1.679600    5.859900   -3.767600
N     -1.367400    6.895500   -4.559300
H      1.216700    5.517900   -2.056300
H      1.804900    7.476200   -3.554400
H      0.020500    8.271900   -5.141200
