22

O      1.225500   -0.000000   -0.000000
C      0.000000   -0.000000   -0.000000
N     -0.713000    0.000000    1.154400
H     -1.712600    0.063700    1.111800
C     -0.806800   -0.008800   -1.275400
C     -0.038900    0.050500    2.435000
H     -0.754300   -0.173300    3.220300
H      0.760300   -0.685200    2.452100
H      0.401600    1.029800    2.616000
H     -1.879900   -0.053500   -1.105800
H     -0.500400   -0.864800   -1.870900
H     -0.569100    0.889100   -1.840600
C      5.293300    0.084900   -5.293800
C      5.938300    1.178400   -5.871400
C      6.620100    0.926700   -7.046300
C      6.595900   -0.379700   -7.532100
Br     4.334000    0.322200   -3.687500
N      5.292800   -1.150200   -5.788300
N      5.956600   -1.386200   -6.928700
H      5.897500    2.155800   -5.415100
H      7.152100    1.707100   -7.571400
H      7.106100   -0.652900   -8.445300
