22

O      1.225500   -0.000000   -0.000000
C      0.000000   -0.000000   -0.000000
N     -0.713000    0.000000    1.154400
H     -1.712600    0.063700    1.111800
C     -0.806800   -0.008800   -1.275400
C     -0.038900    0.050500    2.435000
H     -0.754300   -0.173300    3.220300
H      0.760300   -0.685200    2.452100
H      0.401600    1.029800    2.616000
H     -1.879900   -0.053500   -1.105800
H     -0.500400   -0.864800   -1.870900
H     -0.569100    0.889100   -1.840600
C      5.158400    0.362400   -5.383200
C      5.403300    1.592200   -5.994000
C      6.009700    1.541100   -7.234200
C      6.313100    0.280400   -7.746000
Br     4.334000    0.322200   -3.687500
N      5.463100   -0.823200   -5.904200
N      6.051300   -0.864300   -7.108000
H      5.129300    2.518900   -5.513100
H      6.241700    2.438800   -7.789300
H      6.787900    0.160700   -8.709900
