22

O      1.225500   -0.000000   -0.000000
C      0.000000   -0.000000   -0.000000
N     -0.713000    0.000000    1.154400
H     -1.712600    0.063700    1.111800
C     -0.806800   -0.008800   -1.275400
C     -0.038900    0.050500    2.435000
H     -0.754300   -0.173300    3.220300
H      0.760300   -0.685200    2.452100
H      0.401600    1.029800    2.616000
H     -1.879900   -0.053500   -1.105800
H     -0.500400   -0.864800   -1.870900
H     -0.569100    0.889100   -1.840600
C      3.419200    4.363300    2.981500
C      4.769600    4.684300    3.118300
C      5.050600    6.005300    3.408800
C      3.969300    6.876100    3.534800
Br     2.928700    2.586000    2.585000
N      2.412800    5.224100    3.109300
N      2.693800    6.504100    3.391200
H      5.536600    3.933800    3.001200
H      6.065400    6.354900    3.534200
H      4.110400    7.923900    3.760900
