22

O      1.225500   -0.000000   -0.000000
C      0.000000   -0.000000   -0.000000
N     -0.713000    0.000000    1.154400
H     -1.712600    0.063700    1.111800
C     -0.806800   -0.008800   -1.275400
C     -0.038900    0.050500    2.435000
H     -0.754300   -0.173300    3.220300
H      0.760300   -0.685200    2.452100
H      0.401600    1.029800    2.616000
H     -1.879900   -0.053500   -1.105800
H     -0.500400   -0.864800   -1.870900
H     -0.569100    0.889100   -1.840600
C      3.512900   -1.992000   -4.784300
C      3.715900   -0.739400   -5.363500
C      4.141400   -0.742900   -6.677800
C      4.323400   -1.983200   -7.287500
Br     2.931800   -2.097300   -2.993300
N      3.697800   -3.156900   -5.399800
N      4.110700   -3.151800   -6.675000
H      3.546200    0.168300   -4.804500
H      4.327000    0.175600   -7.216000
H      4.654500   -2.065800   -8.313400
