22

O      1.225500   -0.000000   -0.000000
C      0.000000   -0.000000   -0.000000
N     -0.713000    0.000000    1.154400
H     -1.712600    0.063700    1.111800
C     -0.806800   -0.008800   -1.275400
C     -0.038900    0.050500    2.435000
H     -0.754300   -0.173300    3.220300
H      0.760300   -0.685200    2.452100
H      0.401600    1.029800    2.616000
H     -1.879900   -0.053500   -1.105800
H     -0.500400   -0.864800   -1.870900
H     -0.569100    0.889100   -1.840600
C      3.498900   -3.373400   -4.260800
C      3.723200   -2.973800   -5.578200
C      4.136600   -3.964100   -6.448200
C      4.286800   -5.249200   -5.929200
Br     2.931800   -2.097300   -2.993300
N      3.653300   -4.612600   -3.801800
N      4.054700   -5.567700   -4.652300
H      3.577900   -1.948600   -5.883200
H      4.336900   -3.756500   -7.489600
H      4.606800   -6.075400   -6.548800
