22

O      1.225500   -0.000000   -0.000000
C      0.000000   -0.000000   -0.000000
N     -0.713000    0.000000    1.154400
H     -1.712600    0.063700    1.111800
C     -0.806800   -0.008800   -1.275400
C     -0.038900    0.050500    2.435000
H     -0.754300   -0.173300    3.220300
H      0.760300   -0.685200    2.452100
H      0.401600    1.029800    2.616000
H     -1.879900   -0.053500   -1.105800
H     -0.500400   -0.864800   -1.870900
H     -0.569100    0.889100   -1.840600
C      4.685400    3.030500   -1.868900
C      5.212900    3.575100   -0.698200
C      6.220900    4.504900   -0.864600
C      6.606200    4.803200   -2.170700
Br     3.304500    1.751500   -1.751200
N      5.080100    3.340900   -3.100900
N      6.058700    4.244000   -3.254000
H      4.844500    3.277100    0.271700
H      6.694900    4.984700   -0.020200
H      7.387700    5.520400   -2.380000
