22

O      1.225500   -0.000000   -0.000000
C      0.000000   -0.000000   -0.000000
N     -0.713000    0.000000    1.154400
H     -1.712600    0.063700    1.111800
C     -0.806800   -0.008800   -1.275400
C     -0.038900    0.050500    2.435000
H     -0.754300   -0.173300    3.220300
H      0.760300   -0.685200    2.452100
H      0.401600    1.029800    2.616000
H     -1.879900   -0.053500   -1.105800
H     -0.500400   -0.864800   -1.870900
H     -0.569100    0.889100   -1.840600
C      6.687000    0.526200    1.206700
C      7.247500    1.622100    0.550700
C      8.484000    2.033700    1.009100
C      9.042200    1.321200    2.069400
Br     5.000700   -0.114800    0.657200
N      7.251600   -0.129400    2.217400
N      8.451400    0.276100    2.656400
H      6.733000    2.108000   -0.264400
H      9.001800    2.873000    0.567500
H     10.006300    1.584200    2.482000
