22

O      1.225500   -0.000000   -0.000000
C      0.000000   -0.000000   -0.000000
N     -0.713000    0.000000    1.154400
H     -1.712600    0.063700    1.111800
C     -0.806800   -0.008800   -1.275400
C     -0.038900    0.050500    2.435000
H     -0.754300   -0.173300    3.220300
H      0.760300   -0.685200    2.452100
H      0.401600    1.029800    2.616000
H     -1.879900   -0.053500   -1.105800
H     -0.500400   -0.864800   -1.870900
H     -0.569100    0.889100   -1.840600
C     -3.368000    4.057300   -0.150800
C     -4.532900    4.601400    0.390000
C     -5.057700    5.691100   -0.277600
C     -4.378900    6.133500   -1.412000
Br    -2.570900    2.566800    0.685600
N     -2.747600    4.508300   -1.237900
N     -3.263200    5.566000   -1.880000
H     -4.984400    4.184200    1.277200
H     -5.957500    6.184200    0.061500
H     -4.729100    6.979900   -1.986200
