22

O      1.225500   -0.000000   -0.000000
C      0.000000   -0.000000   -0.000000
N     -0.713000    0.000000    1.154400
H     -1.712600    0.063700    1.111800
C     -0.806800   -0.008800   -1.275400
C     -0.038900    0.050500    2.435000
H     -0.754300   -0.173300    3.220300
H      0.760300   -0.685200    2.452100
H      0.401600    1.029800    2.616000
H     -1.879900   -0.053500   -1.105800
H     -0.500400   -0.864800   -1.870900
H     -0.569100    0.889100   -1.840600
C      6.323100   -2.517300    3.607300
C      6.876700   -1.301000    4.006900
C      8.002700   -1.381800    4.803200
C      8.468300   -2.655900    5.124400
Br     4.783700   -2.517000    2.517900
N      6.797100   -3.716500    3.935000
N      7.890000   -3.786400    4.707900
H      6.439400   -0.362000    3.703500
H      8.505900   -0.496700    5.165000
H      9.343600   -2.798800    5.742900
