22

O      1.225500   -0.000000   -0.000000
C      0.000000   -0.000000   -0.000000
N     -0.713000    0.000000    1.154400
H     -1.712600    0.063700    1.111800
C     -0.806800   -0.008800   -1.275400
C     -0.038900    0.050500    2.435000
H     -0.754300   -0.173300    3.220300
H      0.760300   -0.685200    2.452100
H      0.401600    1.029800    2.616000
H     -1.879900   -0.053500   -1.105800
H     -0.500400   -0.864800   -1.870900
H     -0.569100    0.889100   -1.840600
C      2.619500    2.917700    5.805600
C      3.878100    3.358500    5.396900
C      4.517000    4.237600    6.249800
C      3.848300    4.592700    7.420300
Br     1.663100    1.715000    4.712200
N      2.012300    3.279800    6.932600
N      2.638800    4.133100    7.754800
H      4.312500    3.023300    4.467400
H      5.495400    4.636900    6.023700
H      4.284800    5.275500    8.136000
