22

O      1.225500   -0.000000   -0.000000
C      0.000000   -0.000000   -0.000000
N     -0.713000    0.000000    1.154400
H     -1.712600    0.063700    1.111800
C     -0.806800   -0.008800   -1.275400
C     -0.038900    0.050500    2.435000
H     -0.754300   -0.173300    3.220300
H      0.760300   -0.685200    2.452100
H      0.401600    1.029800    2.616000
H     -1.879900   -0.053500   -1.105800
H     -0.500400   -0.864800   -1.870900
H     -0.569100    0.889100   -1.840600
C      0.179400   -5.695100   -2.300600
C      1.537100   -5.972200   -2.459700
C      1.853000   -7.274000   -2.797300
C      0.795900   -8.170900   -2.943600
Br    -0.357900   -3.947100   -1.839800
N     -0.803100   -6.579900   -2.449000
N     -0.488300   -7.841000   -2.776600
H      2.283400   -5.204200   -2.323700
H      2.876100   -7.589600   -2.943100
H      0.964700   -9.205900   -3.206300
