22

O      1.225500   -0.000000   -0.000000
C      0.000000   -0.000000   -0.000000
N     -0.713000    0.000000    1.154400
H     -1.712600    0.063700    1.111800
C     -0.806800   -0.008800   -1.275400
C     -0.038900    0.050500    2.435000
H     -0.754300   -0.173300    3.220300
H      0.760300   -0.685200    2.452100
H      0.401600    1.029800    2.616000
H     -1.879900   -0.053500   -1.105800
H     -0.500400   -0.864800   -1.870900
H     -0.569100    0.889100   -1.840600
C     -0.837400    6.157900    0.270900
C     -1.608400    6.812500   -0.689500
C     -1.917900    8.131600   -0.419900
C     -1.434600    8.671000    0.771300
Br    -0.360000    4.353900   -0.001800
N     -0.393600    6.707400    1.398400
N     -0.698200    7.987800    1.652600
H     -1.935400    6.304700   -1.584100
H     -2.510100    8.725700   -1.101100
H     -1.635700    9.696000    1.050500
