22

O      1.225500   -0.000000   -0.000000
C      0.000000   -0.000000   -0.000000
N     -0.713000    0.000000    1.154400
H     -1.712600    0.063700    1.111800
C     -0.806800   -0.008800   -1.275400
C     -0.038900    0.050500    2.435000
H     -0.754300   -0.173300    3.220300
H      0.760300   -0.685200    2.452100
H      0.401600    1.029800    2.616000
H     -1.879900   -0.053500   -1.105800
H     -0.500400   -0.864800   -1.870900
H     -0.569100    0.889100   -1.840600
C      0.414300   -5.262800    1.461400
C      1.428500   -6.220300    1.459000
C      1.251100   -7.291000    2.313700
C      0.089800   -7.307900    3.084600
Br     0.560300   -3.761100    0.329900
N     -0.682100   -5.313600    2.213300
N     -0.846800   -6.355700    3.040000
H      2.293400   -6.116000    0.821600
H      1.979700   -8.085800    2.385700
H     -0.118300   -8.112700    3.776000
