22

O      1.225500   -0.000000   -0.000000
C      0.000000   -0.000000   -0.000000
N     -0.713000    0.000000    1.154400
H     -1.712600    0.063700    1.111800
C     -0.806800   -0.008800   -1.275400
C     -0.038900    0.050500    2.435000
H     -0.754300   -0.173300    3.220300
H      0.760300   -0.685200    2.452100
H      0.401600    1.029800    2.616000
H     -1.879900   -0.053500   -1.105800
H     -0.500400   -0.864800   -1.870900
H     -0.569100    0.889100   -1.840600
C     -0.093100   -5.271800   -0.590600
C      0.785300   -6.305100   -0.916600
C      0.233600   -7.377600   -1.590300
C     -1.130100   -7.321400   -1.874000
Br     0.560300   -3.761100    0.329900
N     -1.391800   -5.254000   -0.879000
N     -1.919400   -6.298400   -1.532800
H      1.830400   -6.254200   -0.651300
H      0.830300   -8.228100   -1.887600
H     -1.632200   -8.122800   -2.397900
