22

O      1.225500   -0.000000   -0.000000
C      0.000000   -0.000000   -0.000000
N     -0.713000    0.000000    1.154400
H     -1.712600    0.063700    1.111800
C     -0.806800   -0.008800   -1.275400
C     -0.038900    0.050500    2.435000
H     -0.754300   -0.173300    3.220300
H      0.760300   -0.685200    2.452100
H      0.401600    1.029800    2.616000
H     -1.879900   -0.053500   -1.105800
H     -0.500400   -0.864800   -1.870900
H     -0.569100    0.889100   -1.840600
C      2.561600   -5.329900    3.213300
C      3.810000   -5.614800    2.660400
C      4.736900   -6.175900    3.517500
C      4.337100   -6.399000    4.834200
Br     1.224800   -4.562000    2.127000
N      2.216300   -5.557700    4.477800
N      3.121300   -6.102400    5.303000
H      4.022900   -5.403400    1.623600
H      5.732700   -6.433300    3.186000
H      5.007000   -6.834600    5.562500
