22

O      1.225500   -0.000000   -0.000000
C      0.000000   -0.000000   -0.000000
N     -0.713000    0.000000    1.154400
H     -1.712600    0.063700    1.111800
C     -0.806800   -0.008800   -1.275400
C     -0.038900    0.050500    2.435000
H     -0.754300   -0.173300    3.220300
H      0.760300   -0.685200    2.452100
H      0.401600    1.029800    2.616000
H     -1.879900   -0.053500   -1.105800
H     -0.500400   -0.864800   -1.870900
H     -0.569100    0.889100   -1.840600
C      4.044800    3.667200    0.870000
C      4.313500    4.525300   -0.196200
C      5.049800    5.654100    0.107000
C      5.446400    5.821500    1.432900
Br     3.046300    2.097200    0.562000
N      4.441300    3.861200    2.125100
N      5.155300    4.958900    2.411200
H      3.960100    4.305900   -1.192300
H      5.310500    6.381000   -0.648900
H      6.024700    6.679700    1.746100
