22

O      1.225500   -0.000000   -0.000000
C      0.000000   -0.000000   -0.000000
N     -0.713000    0.000000    1.154400
H     -1.712600    0.063700    1.111800
C     -0.806800   -0.008800   -1.275400
C     -0.038900    0.050500    2.435000
H     -0.754300   -0.173300    3.220300
H      0.760300   -0.685200    2.452100
H      0.401600    1.029800    2.616000
H     -1.879900   -0.053500   -1.105800
H     -0.500400   -0.864800   -1.870900
H     -0.569100    0.889100   -1.840600
C      2.090100    6.250500   -1.476800
C      3.259400    6.706100   -2.085600
C      3.227500    8.002600   -2.561400
C      2.043900    8.718400   -2.387900
Br     2.029700    4.493800   -0.793300
N      0.977500    6.964900   -1.329300
N      0.954600    8.222100   -1.793700
H      4.128100    6.071200   -2.171600
H      4.082400    8.448800   -3.049000
H      1.943600    9.737700   -2.733900
