22

O      1.225500   -0.000000   -0.000000
C      0.000000   -0.000000   -0.000000
N     -0.713000    0.000000    1.154400
H     -1.712600    0.063700    1.111800
C     -0.806800   -0.008800   -1.275400
C     -0.038900    0.050500    2.435000
H     -0.754300   -0.173300    3.220300
H      0.760300   -0.685200    2.452100
H      0.401600    1.029800    2.616000
H     -1.879900   -0.053500   -1.105800
H     -0.500400   -0.864800   -1.870900
H     -0.569100    0.889100   -1.840600
C      1.134800   -5.117700    3.402800
C      0.766700   -5.787200    4.569700
C      1.028100   -7.143400    4.596600
C      1.626800   -7.701500    3.468200
Br     0.820900   -3.263200    3.264700
N      1.705600   -5.686100    2.343900
N      1.956000   -7.002400    2.377900
H      0.306200   -5.262400    5.392900
H      0.780700   -7.751600    5.454900
H      1.861700   -8.755600    3.415700
