22

O      1.225500   -0.000000   -0.000000
C      0.000000   -0.000000   -0.000000
N     -0.713000    0.000000    1.154400
H     -1.712600    0.063700    1.111800
C     -0.806800   -0.008800   -1.275400
C     -0.038900    0.050500    2.435000
H     -0.754300   -0.173300    3.220300
H      0.760300   -0.685200    2.452100
H      0.401600    1.029800    2.616000
H     -1.879900   -0.053500   -1.105800
H     -0.500400   -0.864800   -1.870900
H     -0.569100    0.889100   -1.840600
C      1.084300    5.398500    0.693500
C      0.367400    6.566800    0.951600
C      1.097200    7.624100    1.459400
C      2.461500    7.420800    1.661100
Br     0.180900    3.896000   -0.001500
N      2.389300    5.242000    0.899500
N      3.090400    6.272700    1.392500
H     -0.693400    6.624800    0.760400
H      0.634400    8.572400    1.692500
H      3.097300    8.201400    2.055300
