22

O      1.225500   -0.000000   -0.000000
C      0.000000   -0.000000   -0.000000
N     -0.713000    0.000000    1.154400
H     -1.712600    0.063700    1.111800
C     -0.806800   -0.008800   -1.275400
C     -0.038900    0.050500    2.435000
H     -0.754300   -0.173300    3.220300
H      0.760300   -0.685200    2.452100
H      0.401600    1.029800    2.616000
H     -1.879900   -0.053500   -1.105800
H     -0.500400   -0.864800   -1.870900
H     -0.569100    0.889100   -1.840600
C      0.681200    4.660800   -3.827700
C      0.134800    5.892300   -4.188800
C     -0.240100    6.022600   -5.512000
C     -0.037500    4.923400   -6.345100
Br     1.225600    4.380200   -2.044000
N      0.859300    3.632800   -4.653200
N      0.492900    3.767200   -5.935500
H      0.018700    6.685300   -3.465700
H     -0.673300    6.937200   -5.891100
H     -0.305900    4.950300   -7.392100
