22

O      1.225500   -0.000000   -0.000000
C      0.000000   -0.000000   -0.000000
N     -0.713000    0.000000    1.154400
H     -1.712600    0.063700    1.111800
C     -0.806800   -0.008800   -1.275400
C     -0.038900    0.050500    2.435000
H     -0.754300   -0.173300    3.220300
H      0.760300   -0.685200    2.452100
H      0.401600    1.029800    2.616000
H     -1.879900   -0.053500   -1.105800
H     -0.500400   -0.864800   -1.870900
H     -0.569100    0.889100   -1.840600
C      0.818300   -5.884900    1.504000
C     -0.183000   -6.537500    0.785000
C     -0.424400   -7.850500    1.140100
C      0.347700   -8.386600    2.169700
Br     1.225700   -4.089100    1.096900
N      1.535500   -6.431100    2.482500
N      1.295200   -7.705600    2.821100
H     -0.727200   -6.032600    0.001300
H     -1.179700   -8.442500    0.643400
H      0.216300   -9.406700    2.502600
