22

O      1.225500   -0.000000   -0.000000
C      0.000000   -0.000000   -0.000000
N     -0.713000    0.000000    1.154400
H     -1.712600    0.063700    1.111800
C     -0.806800   -0.008800   -1.275400
C     -0.038900    0.050500    2.435000
H     -0.754300   -0.173300    3.220300
H      0.760300   -0.685200    2.452100
H      0.401600    1.029800    2.616000
H     -1.879900   -0.053500   -1.105800
H     -0.500400   -0.864800   -1.870900
H     -0.569100    0.889100   -1.840600
C      1.622600   -5.240900    2.536500
C      1.773100   -4.707000    3.816300
C      2.062900   -5.612200    4.818700
C      2.174900   -6.953600    4.456000
Br     1.225700   -4.089100    1.096900
N      1.737200   -6.530100    2.228500
N      2.018600   -7.402100    3.206900
H      1.666300   -3.647900    3.995600
H      2.198300   -5.298800    5.844000
H      2.399700   -7.719700    5.185100
