22

O      1.225500   -0.000000   -0.000000
C      0.000000   -0.000000   -0.000000
N     -0.713000    0.000000    1.154400
H     -1.712600    0.063700    1.111800
C     -0.806800   -0.008800   -1.275400
C     -0.038900    0.050500    2.435000
H     -0.754300   -0.173300    3.220300
H      0.760300   -0.685200    2.452100
H      0.401600    1.029800    2.616000
H     -1.879900   -0.053500   -1.105800
H     -0.500400   -0.864800   -1.870900
H     -0.569100    0.889100   -1.840600
C      6.204100    1.785100   -0.561400
C      7.106700    1.702100   -1.621500
C      8.435100    1.550500   -1.273900
C      8.738000    1.496100    0.085700
Br     4.366000    1.993200   -0.928600
N      6.531800    1.729200    0.726800
N      7.822800    1.581900    1.055800
H      6.771100    1.754900   -2.646100
H      9.211900    1.476500   -2.021500
H      9.754600    1.378800    0.434300
