22

O      1.225500   -0.000000   -0.000000
C      0.000000   -0.000000   -0.000000
N     -0.713000    0.000000    1.154400
H     -1.712600    0.063700    1.111800
C     -0.806800   -0.008800   -1.275400
C     -0.038900    0.050500    2.435000
H     -0.754300   -0.173300    3.220300
H      0.760300   -0.685200    2.452100
H      0.401600    1.029800    2.616000
H     -1.879900   -0.053500   -1.105800
H     -0.500400   -0.864800   -1.870900
H     -0.569100    0.889100   -1.840600
C      0.563300   -5.498300    3.111200
C     -0.348200   -6.553900    3.098300
C      0.197000   -7.823200    3.088900
C      1.587500   -7.921800    3.093200
Br    -0.078500   -3.725000    3.124800
N      1.887000   -5.632200    3.115000
N      2.408100   -6.867100    3.105800
H     -1.412300   -6.372900    3.096000
H     -0.424600   -8.707200    3.078600
H      2.086400   -8.881000    3.086400
