22

O      1.224000    0.000000    0.000000
C      0.000000    0.000000    0.000000
N     -0.718000    0.000000    1.154000
H     -1.717000    0.061000    1.108000
C     -0.809000   -0.010000   -1.276000
C     -0.049000    0.046000    2.436000
H     -0.777000   -0.133000    3.221000
H      0.720000   -0.720000    2.476000
H      0.429000    1.010000    2.602000
H     -1.882000   -0.038000   -1.106000
H     -0.515000   -0.876000   -1.863000
H     -0.559000    0.879000   -1.850000
C      5.367900   -2.057700   -0.260000
C      5.871400   -2.822600    0.792100
C      7.169100   -3.272900    0.645100
C      7.838600   -2.922300   -0.526300
Br     3.605500   -1.394300   -0.157600
N      6.038900   -1.743100   -1.364900
N      7.297500   -2.183900   -1.500000
H      5.270200   -3.040400    1.661800
H      7.650500   -3.872800    1.404100
H      8.855900   -3.237700   -0.712300
