22

O      1.224000    0.000000    0.000000
C      0.000000    0.000000    0.000000
N     -0.718000    0.000000    1.154000
H     -1.717000    0.061000    1.108000
C     -0.809000   -0.010000   -1.276000
C     -0.049000    0.046000    2.436000
H     -0.777000   -0.133000    3.221000
H      0.720000   -0.720000    2.476000
H      0.429000    1.010000    2.602000
H     -1.882000   -0.038000   -1.106000
H     -0.515000   -0.876000   -1.863000
H     -0.559000    0.879000   -1.850000
C      2.354700    4.092200   -0.286300
C      1.191600    4.862000   -0.299100
C      1.368500    6.226600   -0.176800
C      2.676400    6.693200   -0.054100
Br     2.222500    2.217800   -0.447200
N      3.588700    4.574900   -0.167100
N      3.751900    5.900000   -0.048900
H      0.219600    4.403500   -0.399400
H      0.530700    6.909100   -0.175600
H      2.893600    7.747600    0.045700
