22

O      1.224000    0.000000    0.000000
C      0.000000    0.000000    0.000000
N     -0.718000    0.000000    1.154000
H     -1.717000    0.061000    1.108000
C     -0.809000   -0.010000   -1.276000
C     -0.049000    0.046000    2.436000
H     -0.777000   -0.133000    3.221000
H      0.720000   -0.720000    2.476000
H      0.429000    1.010000    2.602000
H     -1.882000   -0.038000   -1.106000
H     -0.515000   -0.876000   -1.863000
H     -0.559000    0.879000   -1.850000
C      2.293800    3.985500    1.404300
C      3.226800    4.917700    1.858100
C      2.708300    6.085900    2.382400
C      1.320500    6.215600    2.405400
Br     2.898500    2.356900    0.670300
N      0.973600    4.145300    1.443000
N      0.478400    5.281600    1.953200
H      4.286700    4.722500    1.796300
H      3.347900    6.870500    2.760600
H      0.841800    7.100800    2.800400
