22

O      1.224000    0.000000    0.000000
C      0.000000    0.000000    0.000000
N     -0.718000    0.000000    1.154000
H     -1.717000    0.061000    1.108000
C     -0.809000   -0.010000   -1.276000
C     -0.049000    0.046000    2.436000
H     -0.777000   -0.133000    3.221000
H      0.720000   -0.720000    2.476000
H      0.429000    1.010000    2.602000
H     -1.882000   -0.038000   -1.106000
H     -0.515000   -0.876000   -1.863000
H     -0.559000    0.879000   -1.850000
C      3.448800    2.771800    2.708800
C      2.904800    3.482200    3.778800
C      3.079600    4.852200    3.746000
C      3.774000    5.382300    2.659600
Br     3.265200    0.895500    2.658400
N      4.106700    3.314200    1.687500
N      4.272000    4.644200    1.663100
H      2.381800    2.976900    4.576400
H      2.695600    5.491600    4.527900
H      3.950000    6.444800    2.564900
