22

O      1.224000    0.000000    0.000000
C      0.000000    0.000000    0.000000
N     -0.718000    0.000000    1.154000
H     -1.717000    0.061000    1.108000
C     -0.809000   -0.010000   -1.276000
C     -0.049000    0.046000    2.436000
H     -0.777000   -0.133000    3.221000
H      0.720000   -0.720000    2.476000
H      0.429000    1.010000    2.602000
H     -1.882000   -0.038000   -1.106000
H     -0.515000   -0.876000   -1.863000
H     -0.559000    0.879000   -1.850000
C      0.001500    4.815200   -1.240200
C      0.632600    5.087900   -0.026600
C      0.586400    6.402000    0.396900
C     -0.078500    7.314300   -0.421000
Br     0.007300    3.051300   -1.907500
N     -0.624400    5.714800   -1.994500
N     -0.664800    6.987700   -1.576600
H      1.123100    4.307600    0.535400
H      1.045400    6.715500    1.323700
H     -0.156000    8.359500   -0.155800
