22

O      1.224000    0.000000    0.000000
C      0.000000    0.000000    0.000000
N     -0.718000    0.000000    1.154000
H     -1.717000    0.061000    1.108000
C     -0.809000   -0.010000   -1.276000
C     -0.049000    0.046000    2.436000
H     -0.777000   -0.133000    3.221000
H      0.720000   -0.720000    2.476000
H      0.429000    1.010000    2.602000
H     -1.882000   -0.038000   -1.106000
H     -0.515000   -0.876000   -1.863000
H     -0.559000    0.879000   -1.850000
C      1.720900   -2.734800   -3.965100
C      2.428300   -3.076700   -5.117600
C      3.721300   -3.522400   -4.923300
C      4.185300   -3.585500   -3.610300
Br    -0.053300   -2.114700   -4.121200
N      2.198700   -2.808600   -2.725600
N      3.454300   -3.242000   -2.545500
H      1.977800   -2.992300   -6.094900
H      4.351900   -3.811600   -5.751900
H      5.185800   -3.924100   -3.379700
