22

O      1.224000    0.000000    0.000000
C      0.000000    0.000000    0.000000
N     -0.718000    0.000000    1.154000
H     -1.717000    0.061000    1.108000
C     -0.809000   -0.010000   -1.276000
C     -0.049000    0.046000    2.436000
H     -0.777000   -0.133000    3.221000
H      0.720000   -0.720000    2.476000
H      0.429000    1.010000    2.602000
H     -1.882000   -0.038000   -1.106000
H     -0.515000   -0.876000   -1.863000
H     -0.559000    0.879000   -1.850000
C      2.687600    4.785800    3.887300
C      3.733900    5.513300    4.454200
C      3.516900    6.869600    4.601600
C      2.288200    7.370600    4.174100
Br     2.883200    2.926100    3.642500
N      1.526600    5.300400    3.490600
N      1.323800    6.617300    3.637000
H      4.651500    5.030400    4.754300
H      4.265600    7.520400    5.030100
H      2.046000    8.421000    4.257100
