22

O      1.224000    0.000000    0.000000
C      0.000000    0.000000    0.000000
N     -0.718000    0.000000    1.154000
H     -1.717000    0.061000    1.108000
C     -0.809000   -0.010000   -1.276000
C     -0.049000    0.046000    2.436000
H     -0.777000   -0.133000    3.221000
H      0.720000   -0.720000    2.476000
H      0.429000    1.010000    2.602000
H     -1.882000   -0.038000   -1.106000
H     -0.515000   -0.876000   -1.863000
H     -0.559000    0.879000   -1.850000
C      4.187500    1.670500    3.717300
C      5.297700    2.508500    3.820400
C      5.921400    2.536800    5.052700
C      5.385600    1.734500    6.058900
Br     3.264200    1.559600    2.076600
N      3.704600    0.918000    4.702500
N      4.315400    0.951000    5.895100
H      5.636200    3.093000    2.978400
H      6.789700    3.153900    5.234700
H      5.819200    1.703900    7.048800
