22

O      1.224000    0.000000    0.000000
C      0.000000    0.000000    0.000000
N     -0.718000    0.000000    1.154000
H     -1.717000    0.061000    1.108000
C     -0.809000   -0.010000   -1.276000
C     -0.049000    0.046000    2.436000
H     -0.777000   -0.133000    3.221000
H      0.720000   -0.720000    2.476000
H      0.429000    1.010000    2.602000
H     -1.882000   -0.038000   -1.106000
H     -0.515000   -0.876000   -1.863000
H     -0.559000    0.879000   -1.850000
C      4.359700   -1.431800    2.869200
C      4.252700   -2.123400    1.662600
C      4.256800   -3.501800    1.753500
C      4.366300   -4.058200    3.027000
Br     4.363600    0.454000    2.854700
N      4.462700   -1.999300    4.068100
N      4.466000   -3.337300    4.147800
H      4.172200   -1.598000    0.723100
H      4.178600   -4.128100    0.876300
H      4.376500   -5.128800    3.177300
