22

O      1.224000    0.000000    0.000000
C      0.000000    0.000000    0.000000
N     -0.718000    0.000000    1.154000
H     -1.717000    0.061000    1.108000
C     -0.809000   -0.010000   -1.276000
C     -0.049000    0.046000    2.436000
H     -0.777000   -0.133000    3.221000
H      0.720000   -0.720000    2.476000
H      0.429000    1.010000    2.602000
H     -1.882000   -0.038000   -1.106000
H     -0.515000   -0.876000   -1.863000
H     -0.559000    0.879000   -1.850000
C      3.918900   -2.292500    2.144300
C      4.045300   -2.971100    0.932300
C      3.910500   -4.344700    0.991600
C      3.664400   -4.909500    2.242100
Br     4.086400   -0.414300    2.172100
N      3.683400   -2.867700    3.320600
N      3.553800   -4.200900    3.369800
H      4.237000   -2.440000    0.012300
H      3.991600   -4.961100    0.107700
H      3.547300   -5.977000    2.367300
