22

O      1.224000    0.000000    0.000000
C      0.000000    0.000000    0.000000
N     -0.718000    0.000000    1.154000
H     -1.717000    0.061000    1.108000
C     -0.809000   -0.010000   -1.276000
C     -0.049000    0.046000    2.436000
H     -0.777000   -0.133000    3.221000
H      0.720000   -0.720000    2.476000
H      0.429000    1.010000    2.602000
H     -1.882000   -0.038000   -1.106000
H     -0.515000   -0.876000   -1.863000
H     -0.559000    0.879000   -1.850000
C      5.762200    3.389000   -0.916700
C      6.847800    4.251900   -1.065900
C      7.420600    4.291100   -2.322400
C      6.863300    3.474000   -3.304800
Br     4.908500    3.261400    0.760100
N      5.257500    2.622900   -1.880200
N      5.818900    2.666600   -3.096600
H      7.206300    4.846400   -0.239300
H      8.266400    4.927500   -2.540400
H      7.257300    3.450700   -4.311300
