22

O      1.224000    0.000000    0.000000
C      0.000000    0.000000    0.000000
N     -0.718000    0.000000    1.154000
H     -1.717000    0.061000    1.108000
C     -0.809000   -0.010000   -1.276000
C     -0.049000    0.046000    2.436000
H     -0.777000   -0.133000    3.221000
H      0.720000   -0.720000    2.476000
H      0.429000    1.010000    2.602000
H     -1.882000   -0.038000   -1.106000
H     -0.515000   -0.876000   -1.863000
H     -0.559000    0.879000   -1.850000
C      1.892300    0.441300    3.989700
C      2.162200    1.731500    4.445700
C      2.111500    1.911900    5.814400
C      1.799300    0.799700    6.594700
Br     1.935800    0.089200    2.137500
N      1.597500   -0.597400    4.767100
N      1.550300   -0.414100    6.094100
H      2.395000    2.529700    3.757400
H      2.305100    2.873900    6.267000
H      1.741100    0.863400    7.672400
