22

O      1.224000    0.000000    0.000000
C      0.000000    0.000000    0.000000
N     -0.718000    0.000000    1.154000
H     -1.717000    0.061000    1.108000
C     -0.809000   -0.010000   -1.276000
C     -0.049000    0.046000    2.436000
H     -0.777000   -0.133000    3.221000
H      0.720000   -0.720000    2.476000
H      0.429000    1.010000    2.602000
H     -1.882000   -0.038000   -1.106000
H     -0.515000   -0.876000   -1.863000
H     -0.559000    0.879000   -1.850000
C      0.667100    1.915900   -4.044300
C     -0.085300    2.427600   -5.101500
C     -0.084100    3.802600   -5.234300
C      0.660100    4.533600   -4.309600
Br     0.731600    0.050300   -3.775700
N      1.366100    2.647100   -3.180200
N      1.362100    3.980700   -3.315900
H     -0.629900    1.774700   -5.766600
H     -0.635900    4.296700   -6.021200
H      0.709000    5.612900   -4.349600
