22

O      1.224000    0.000000    0.000000
C      0.000000    0.000000    0.000000
N     -0.718000    0.000000    1.154000
H     -1.717000    0.061000    1.108000
C     -0.809000   -0.010000   -1.276000
C     -0.049000    0.046000    2.436000
H     -0.777000   -0.133000    3.221000
H      0.720000   -0.720000    2.476000
H      0.429000    1.010000    2.602000
H     -1.882000   -0.038000   -1.106000
H     -0.515000   -0.876000   -1.863000
H     -0.559000    0.879000   -1.850000
C      5.085000    1.231300   -2.612200
C      5.036800    2.279900   -3.530700
C      6.209300    2.539700   -4.213600
C      7.311000    1.737600   -3.920400
Br     3.536900    0.795300   -1.627400
N      6.158000    0.486500   -2.359100
N      7.291700    0.744900   -3.025900
H      4.130100    2.844500   -3.686500
H      6.275100    3.331300   -4.946200
H      8.262200    1.880900   -4.414100
