22

O      1.224000    0.000000    0.000000
C      0.000000    0.000000    0.000000
N     -0.718000    0.000000    1.154000
H     -1.717000    0.061000    1.108000
C     -0.809000   -0.010000   -1.276000
C     -0.049000    0.046000    2.436000
H     -0.777000   -0.133000    3.221000
H      0.720000   -0.720000    2.476000
H      0.429000    1.010000    2.602000
H     -1.882000   -0.038000   -1.106000
H     -0.515000   -0.876000   -1.863000
H     -0.559000    0.879000   -1.850000
C      4.602100    1.257900   -1.620100
C      4.148300    2.200300   -0.697400
C      4.137200    3.512500   -1.129300
C      4.575400    3.761400   -2.429100
Br     4.656600   -0.562200   -1.129100
N      5.013300    1.534400   -2.854800
N      4.999400    2.810000   -3.266300
H      3.828600    1.905600    0.290600
H      3.803400    4.317100   -0.489800
H      4.595300    4.762400   -2.837100
