22

O      1.224000    0.000000    0.000000
C      0.000000    0.000000    0.000000
N     -0.718000    0.000000    1.154000
H     -1.717000    0.061000    1.108000
C     -0.809000   -0.010000   -1.276000
C     -0.049000    0.046000    2.436000
H     -0.777000   -0.133000    3.221000
H      0.720000   -0.720000    2.476000
H      0.429000    1.010000    2.602000
H     -1.882000   -0.038000   -1.106000
H     -0.515000   -0.876000   -1.863000
H     -0.559000    0.879000   -1.850000
C      4.476700   -1.963300    0.068800
C      5.359800   -1.024300    0.601700
C      6.611400   -1.498100    0.944600
C      6.864400   -2.851500    0.726600
Br     2.742100   -1.418400   -0.432000
N      4.755100   -3.249800   -0.124700
N      5.971700   -3.701600    0.210600
H      5.067300    0.006500    0.731700
H      7.367200   -0.850200    1.365100
H      7.820200   -3.294400    0.970000
