22

O      1.224000    0.000000    0.000000
C      0.000000    0.000000    0.000000
N     -0.718000    0.000000    1.154000
H     -1.717000    0.061000    1.108000
C     -0.809000   -0.010000   -1.276000
C     -0.049000    0.046000    2.436000
H     -0.777000   -0.133000    3.221000
H      0.720000   -0.720000    2.476000
H      0.429000    1.010000    2.602000
H     -1.882000   -0.038000   -1.106000
H     -0.515000   -0.876000   -1.863000
H     -0.559000    0.879000   -1.850000
C      3.976500   -2.527400   -0.909100
C      3.115800   -2.954300    0.102000
C      2.934700   -4.319900    0.205100
C      3.622100   -5.126200   -0.700900
Br     4.291800   -0.681700   -1.134400
N      4.616200   -3.329000   -1.756600
N      4.435200   -4.652900   -1.650000
H      2.628400   -2.247200    0.756000
H      2.287700   -4.751000    0.955700
H      3.530500   -6.203300   -0.681900
