22

O      1.224000    0.000000    0.000000
C      0.000000    0.000000    0.000000
N     -0.718000    0.000000    1.154000
H     -1.717000    0.061000    1.108000
C     -0.809000   -0.010000   -1.276000
C     -0.049000    0.046000    2.436000
H     -0.777000   -0.133000    3.221000
H      0.720000   -0.720000    2.476000
H      0.429000    1.010000    2.602000
H     -1.882000   -0.038000   -1.106000
H     -0.515000   -0.876000   -1.863000
H     -0.559000    0.879000   -1.850000
C      0.655900   -0.852700   -4.414500
C      1.318600   -2.027400   -4.059000
C      0.543300   -3.170000   -4.017400
C     -0.808500   -3.037100   -4.331200
Br     1.624400    0.763200   -4.500700
N     -0.638800   -0.765100   -4.707800
N     -1.384300   -1.878300   -4.665100
H      2.374100   -2.026600   -3.833000
H      0.962400   -4.130400   -3.753100
H     -1.477700   -3.886200   -4.320200
