22

O      1.224000    0.000000    0.000000
C      0.000000    0.000000    0.000000
N     -0.718000    0.000000    1.154000
H     -1.717000    0.061000    1.108000
C     -0.809000   -0.010000   -1.276000
C     -0.049000    0.046000    2.436000
H     -0.777000   -0.133000    3.221000
H      0.720000   -0.720000    2.476000
H      0.429000    1.010000    2.602000
H     -1.882000   -0.038000   -1.106000
H     -0.515000   -0.876000   -1.863000
H     -0.559000    0.879000   -1.850000
C      4.654300    0.421500   -0.085700
C      4.757800    0.846200   -1.410300
C      4.205000    0.007800   -2.358900
C      3.605800   -1.165700   -1.903500
Br     5.377100    1.494400    1.286500
N      4.073500   -0.707800    0.311000
N      3.539600   -1.515900   -0.615600
H      5.243600    1.776700   -1.662000
H      4.233200    0.246900   -3.412400
H      3.152200   -1.870700   -2.586200
