22

O      1.224000    0.000000    0.000000
C      0.000000    0.000000    0.000000
N     -0.718000    0.000000    1.154000
H     -1.717000    0.061000    1.108000
C     -0.809000   -0.010000   -1.276000
C     -0.049000    0.046000    2.436000
H     -0.777000   -0.133000    3.221000
H      0.720000   -0.720000    2.476000
H      0.429000    1.010000    2.602000
H     -1.882000   -0.038000   -1.106000
H     -0.515000   -0.876000   -1.863000
H     -0.559000    0.879000   -1.850000
C      1.001200    1.219300   -4.003500
C      1.968500    2.140300   -3.601400
C      1.840400    3.415400   -4.117100
C      0.769900    3.652400   -4.978000
Br     1.085800   -0.549900   -3.355900
N     -0.008400    1.483400   -4.828700
N     -0.125700    2.723100   -5.324800
H      2.762700    1.857500   -2.927300
H      2.538900    4.201100   -3.866700
H      0.604700    4.624800   -5.420600
