22

O      1.224000    0.000000    0.000000
C      0.000000    0.000000    0.000000
N     -0.718000    0.000000    1.154000
H     -1.717000    0.061000    1.108000
C     -0.809000   -0.010000   -1.276000
C     -0.049000    0.046000    2.436000
H     -0.777000   -0.133000    3.221000
H      0.720000   -0.720000    2.476000
H      0.429000    1.010000    2.602000
H     -1.882000   -0.038000   -1.106000
H     -0.515000   -0.876000   -1.863000
H     -0.559000    0.879000   -1.850000
C      3.285400    1.241700   -4.262000
C      2.740900    1.637000   -5.483800
C      2.930400    0.766800   -6.539900
C      3.638800   -0.406000   -6.282700
Br     3.082100    2.359200   -2.756500
N      3.956700    0.112000   -4.054900
N      4.136400   -0.727000   -5.084700
H      2.206400    2.569700   -5.581400
H      2.547400    0.981600   -7.527300
H      3.826800   -1.134800   -7.058800
