22

O      1.224000    0.000000    0.000000
C      0.000000    0.000000    0.000000
N     -0.718000    0.000000    1.154000
H     -1.717000    0.061000    1.108000
C     -0.809000   -0.010000   -1.276000
C     -0.049000    0.046000    2.436000
H     -0.777000   -0.133000    3.221000
H      0.720000   -0.720000    2.476000
H      0.429000    1.010000    2.602000
H     -1.882000   -0.038000   -1.106000
H     -0.515000   -0.876000   -1.863000
H     -0.559000    0.879000   -1.850000
C      3.330000    0.825700   -2.788800
C      2.032300    1.033800   -2.321800
C      1.920900    1.745500   -1.143000
C      3.102600    2.179800   -0.544400
Br     3.591400   -0.134800   -4.390600
N      4.436200    1.256800   -2.188200
N      4.319600    1.946600   -1.044800
H      1.177400    0.655000   -2.861000
H      0.959400    1.959600   -0.698700
H      3.095200    2.742000    0.379100
