22

O      1.224000    0.000000    0.000000
C      0.000000    0.000000    0.000000
N     -0.718000    0.000000    1.154000
H     -1.717000    0.061000    1.108000
C     -0.809000   -0.010000   -1.276000
C     -0.049000    0.046000    2.436000
H     -0.777000   -0.133000    3.221000
H      0.720000   -0.720000    2.476000
H      0.429000    1.010000    2.602000
H     -1.882000   -0.038000   -1.106000
H     -0.515000   -0.876000   -1.863000
H     -0.559000    0.879000   -1.850000
C     -1.046600    3.896600    0.779500
C     -1.988500    4.848500    0.389400
C     -1.624600    6.168800    0.570900
C     -0.367000    6.415700    1.119300
Br    -1.445700    2.065000    0.573400
N      0.146400    4.171500    1.300400
N      0.491900    5.455100    1.473300
H     -2.939800    4.554500   -0.027400
H     -2.284200    6.981000    0.300500
H     -0.012800    7.422600    1.290900
