22

O      1.224000    0.000000    0.000000
C      0.000000    0.000000    0.000000
N     -0.718000    0.000000    1.154000
H     -1.717000    0.061000    1.108000
C     -0.809000   -0.010000   -1.276000
C     -0.049000    0.046000    2.436000
H     -0.777000   -0.133000    3.221000
H      0.720000   -0.720000    2.476000
H      0.429000    1.010000    2.602000
H     -1.882000   -0.038000   -1.106000
H     -0.515000   -0.876000   -1.863000
H     -0.559000    0.879000   -1.850000
C      2.801400    2.847600    2.794300
C      2.698300    4.161400    2.337400
C      2.521700    5.127300    3.309200
C      2.464600    4.698100    4.634200
Br     3.044300    1.453400    1.547800
N      2.742100    2.476000    4.070500
N      2.570500    3.419200    5.007300
H      2.755200    4.392500    1.284600
H      2.430800    6.174400    3.057900
H      2.328400    5.395400    5.449100
