22

O      1.224000    0.000000    0.000000
C      0.000000    0.000000    0.000000
N     -0.718000    0.000000    1.154000
H     -1.717000    0.061000    1.108000
C     -0.809000   -0.010000   -1.276000
C     -0.049000    0.046000    2.436000
H     -0.777000   -0.133000    3.221000
H      0.720000   -0.720000    2.476000
H      0.429000    1.010000    2.602000
H     -1.882000   -0.038000   -1.106000
H     -0.515000   -0.876000   -1.863000
H     -0.559000    0.879000   -1.850000
C      3.147200    0.496600    3.691300
C      3.651600    0.792200    2.424900
C      4.547600   -0.120400    1.902900
C      4.855200   -1.233100    2.684500
Br     1.916500    1.679100    4.493600
N      3.465300   -0.578000    4.408300
N      4.335500   -1.458800    3.894700
H      3.349600    1.684600    1.898000
H      4.994900    0.017600    0.928900
H      5.547700   -1.989900    2.343000
