22

O      1.224000    0.000000    0.000000
C      0.000000    0.000000    0.000000
N     -0.718000    0.000000    1.154000
H     -1.717000    0.061000    1.108000
C     -0.809000   -0.010000   -1.276000
C     -0.049000    0.046000    2.436000
H     -0.777000   -0.133000    3.221000
H      0.720000   -0.720000    2.476000
H      0.429000    1.010000    2.602000
H     -1.882000   -0.038000   -1.106000
H     -0.515000   -0.876000   -1.863000
H     -0.559000    0.879000   -1.850000
C      4.525500    2.101400   -3.790900
C      5.911900    1.953000   -3.757900
C      6.631600    2.816000   -4.561400
C      5.909200    3.738600   -5.316500
Br     3.450900    0.971700   -2.729900
N      3.870500    2.996000   -4.526300
N      4.576000    3.829800   -5.303300
H      6.378700    1.203900   -3.136400
H      7.710800    2.781600   -4.606500
H      6.402900    4.446000   -5.968400
