22

O      1.224000    0.000000    0.000000
C      0.000000    0.000000    0.000000
N     -0.718000    0.000000    1.154000
H     -1.717000    0.061000    1.108000
C     -0.809000   -0.010000   -1.276000
C     -0.049000    0.046000    2.436000
H     -0.777000   -0.133000    3.221000
H      0.720000   -0.720000    2.476000
H      0.429000    1.010000    2.602000
H     -1.882000   -0.038000   -1.106000
H     -0.515000   -0.876000   -1.863000
H     -0.559000    0.879000   -1.850000
C      2.424500   -4.071800    2.769300
C      1.316100   -4.801000    3.199500
C      1.588700   -5.998600    3.831800
C      2.928700   -6.355200    3.975400
Br     2.160700   -2.422100    1.894300
N      3.691800   -4.445600    2.924700
N      3.948000   -5.609000    3.539300
H      0.312300   -4.437400    3.040200
H      0.799200   -6.637000    4.202000
H      3.219800   -7.277100    4.459300
