22

O      1.224000    0.000000    0.000000
C      0.000000    0.000000    0.000000
N     -0.718000    0.000000    1.154000
H     -1.717000    0.061000    1.108000
C     -0.809000   -0.010000   -1.276000
C     -0.049000    0.046000    2.436000
H     -0.777000   -0.133000    3.221000
H      0.720000   -0.720000    2.476000
H      0.429000    1.010000    2.602000
H     -1.882000   -0.038000   -1.106000
H     -0.515000   -0.876000   -1.863000
H     -0.559000    0.879000   -1.850000
C      1.242600    3.203700    3.435800
C      1.695600    4.007300    4.481900
C      0.746100    4.812800    5.080300
C     -0.555100    4.743300    4.585000
Br     2.460000    2.066600    2.551700
N     -0.010400    3.164700    2.990100
N     -0.925700    3.949300    3.576000
H      2.729100    3.989000    4.792900
H      0.996500    5.471800    5.899300
H     -1.351700    5.343500    5.002200
