22

O      1.224000    0.000000    0.000000
C      0.000000    0.000000    0.000000
N     -0.718000    0.000000    1.154000
H     -1.717000    0.061000    1.108000
C     -0.809000   -0.010000   -1.276000
C     -0.049000    0.046000    2.436000
H     -0.777000   -0.133000    3.221000
H      0.720000   -0.720000    2.476000
H      0.429000    1.010000    2.602000
H     -1.882000   -0.038000   -1.106000
H     -0.515000   -0.876000   -1.863000
H     -0.559000    0.879000   -1.850000
C      4.057100   -2.905300   -1.086700
C      5.109900   -3.593700   -0.484200
C      6.325600   -3.530800   -1.137300
C      6.378800   -2.794200   -2.319600
Br     2.355000   -2.928200   -0.274800
N      4.146600   -2.211400   -2.218300
N      5.329700   -2.155200   -2.845900
H      4.966700   -4.138100    0.436900
H      7.202900   -4.030400   -0.751700
H      7.294800   -2.699400   -2.886100
