22

O      1.224000    0.000000    0.000000
C      0.000000    0.000000    0.000000
N     -0.718000    0.000000    1.154000
H     -1.717000    0.061000    1.108000
C     -0.809000   -0.010000   -1.276000
C     -0.049000    0.046000    2.436000
H     -0.777000   -0.133000    3.221000
H      0.720000   -0.720000    2.476000
H      0.429000    1.010000    2.602000
H     -1.882000   -0.038000   -1.106000
H     -0.515000   -0.876000   -1.863000
H     -0.559000    0.879000   -1.850000
C      1.228500    1.073700   -4.783400
C      0.659500    2.043800   -5.608400
C      1.301000    3.266900   -5.634600
C      2.439800    3.408600   -4.843200
Br     0.429000   -0.631000   -4.676300
N      2.318900    1.246600   -4.040900
N      2.935500    2.436400   -4.071900
H     -0.228700    1.835100   -6.185200
H      0.939100    4.084100   -6.242100
H      2.994800    4.335900   -4.811800
