22

O      1.224000    0.000000    0.000000
C      0.000000    0.000000    0.000000
N     -0.718000    0.000000    1.154000
H     -1.717000    0.061000    1.108000
C     -0.809000   -0.010000   -1.276000
C     -0.049000    0.046000    2.436000
H     -0.777000   -0.133000    3.221000
H      0.720000   -0.720000    2.476000
H      0.429000    1.010000    2.602000
H     -1.882000   -0.038000   -1.106000
H     -0.515000   -0.876000   -1.863000
H     -0.559000    0.879000   -1.850000
C      5.613800    4.156200    0.673400
C      5.676500    3.962800   -0.706500
C      6.866900    4.314400   -1.312800
C      7.875500    4.821500   -0.495000
Br     4.032100    3.707600    1.597200
N      6.599800    4.643900    1.421700
N      7.751800    4.982700    0.825800
H      4.836400    3.561500   -1.252900
H      7.015700    4.202900   -2.377400
H      8.834200    5.118200   -0.897300
