22

O      1.224000    0.000000    0.000000
C      0.000000    0.000000    0.000000
N     -0.718000    0.000000    1.154000
H     -1.717000    0.061000    1.108000
C     -0.809000   -0.010000   -1.276000
C     -0.049000    0.046000    2.436000
H     -0.777000   -0.133000    3.221000
H      0.720000   -0.720000    2.476000
H      0.429000    1.010000    2.602000
H     -1.882000   -0.038000   -1.106000
H     -0.515000   -0.876000   -1.863000
H     -0.559000    0.879000   -1.850000
C      5.510000    1.817300    0.844600
C      5.583000    0.649600    0.085200
C      6.477100   -0.305300    0.529200
C      7.208900   -0.010500    1.678500
Br     4.319700    3.184100    0.323300
N      6.226300    2.063000    1.938400
N      7.091700    1.131400    2.362700
H      4.970900    0.515900   -0.793800
H      6.607900   -1.244200    0.010500
H      7.927300   -0.708300    2.085900
