22

O      1.224000    0.000000    0.000000
C      0.000000    0.000000    0.000000
N     -0.718000    0.000000    1.154000
H     -1.717000    0.061000    1.108000
C     -0.809000   -0.010000   -1.276000
C     -0.049000    0.046000    2.436000
H     -0.777000   -0.133000    3.221000
H      0.720000   -0.720000    2.476000
H      0.429000    1.010000    2.602000
H     -1.882000   -0.038000   -1.106000
H     -0.515000   -0.876000   -1.863000
H     -0.559000    0.879000   -1.850000
C     -0.662300    3.247600   -2.558700
C      0.531800    3.968400   -2.566000
C      0.424800    5.318200   -2.292300
C     -0.850900    5.820000   -2.038900
Br    -0.625400    1.397100   -2.920400
N     -1.863800    3.762800   -2.311800
N     -1.959200    5.073400   -2.047100
H      1.474300    3.485400   -2.774900
H      1.291500    5.963500   -2.274100
H     -1.013500    6.865600   -1.817100
