22

O      1.224000    0.000000    0.000000
C      0.000000    0.000000    0.000000
N     -0.718000    0.000000    1.154000
H     -1.717000    0.061000    1.108000
C     -0.809000   -0.010000   -1.276000
C     -0.049000    0.046000    2.436000
H     -0.777000   -0.133000    3.221000
H      0.720000   -0.720000    2.476000
H      0.429000    1.010000    2.602000
H     -1.882000   -0.038000   -1.106000
H     -0.515000   -0.876000   -1.863000
H     -0.559000    0.879000   -1.850000
C      3.418300   -0.707100    3.332300
C      4.664400   -0.880600    2.730300
C      5.300800    0.272900    2.314600
C      4.642200    1.481500    2.535400
Br     2.466300   -2.219200    3.935600
N      2.820400    0.465500    3.526200
N      3.444500    1.580100    3.120000
H      5.091700   -1.863900    2.604400
H      6.269900    0.245200    1.837100
H      5.077400    2.425300    2.237600
