22

O      1.224000    0.000000    0.000000
C      0.000000    0.000000    0.000000
N     -0.718000    0.000000    1.154000
H     -1.717000    0.061000    1.108000
C     -0.809000   -0.010000   -1.276000
C     -0.049000    0.046000    2.436000
H     -0.777000   -0.133000    3.221000
H      0.720000   -0.720000    2.476000
H      0.429000    1.010000    2.602000
H     -1.882000   -0.038000   -1.106000
H     -0.515000   -0.876000   -1.863000
H     -0.559000    0.879000   -1.850000
C      2.911400   -4.568200   -0.921700
C      2.151300   -5.737500   -0.899300
C      1.943700   -6.299800    0.345400
C      2.507900   -5.650400    1.442300
Br     3.252900   -3.721100   -2.571700
N      3.434400   -3.976700    0.149100
N      3.228500   -4.528500    1.353100
H      1.756400   -6.164300   -1.808700
H      1.368300   -7.206000    0.469300
H      2.388500   -6.030600    2.447400
