22

O      1.224000    0.000000    0.000000
C      0.000000    0.000000    0.000000
N     -0.718000    0.000000    1.154000
H     -1.717000    0.061000    1.108000
C     -0.809000   -0.010000   -1.276000
C     -0.049000    0.046000    2.436000
H     -0.777000   -0.133000    3.221000
H      0.720000   -0.720000    2.476000
H      0.429000    1.010000    2.602000
H     -1.882000   -0.038000   -1.106000
H     -0.515000   -0.876000   -1.863000
H     -0.559000    0.879000   -1.850000
C      0.691800    3.434300    2.597300
C      1.307200    3.050200    3.788500
C      1.124600    3.897800    4.864000
C      0.352500    5.039400    4.654300
Br     0.879600    2.345600    1.068800
N     -0.039300    4.534000    2.435300
N     -0.211700    5.351300    3.483700
H      1.887800    2.142200    3.849700
H      1.560300    3.689300    5.830700
H      0.165600    5.749300    5.448000
