22

O      1.224000    0.000000    0.000000
C      0.000000    0.000000    0.000000
N     -0.718000    0.000000    1.154000
H     -1.717000    0.061000    1.108000
C     -0.809000   -0.010000   -1.276000
C     -0.049000    0.046000    2.436000
H     -0.777000   -0.133000    3.221000
H      0.720000   -0.720000    2.476000
H      0.429000    1.010000    2.602000
H     -1.882000   -0.038000   -1.106000
H     -0.515000   -0.876000   -1.863000
H     -0.559000    0.879000   -1.850000
C      5.336200    0.566200    0.218800
C      5.509800   -0.139200    1.409500
C      5.470900   -1.516400    1.307400
C      5.264500   -2.057800    0.039500
Br     5.372500    2.451500    0.249500
N      5.141100    0.012800   -0.975300
N      5.104600   -1.324000   -1.065900
H      5.664100    0.375100    2.345800
H      5.594800   -2.152700    2.171900
H      5.221900   -3.126500   -0.118900
