22

O      1.224000    0.000000    0.000000
C      0.000000    0.000000    0.000000
N     -0.718000    0.000000    1.154000
H     -1.717000    0.061000    1.108000
C     -0.809000   -0.010000   -1.276000
C     -0.049000    0.046000    2.436000
H     -0.777000   -0.133000    3.221000
H      0.720000   -0.720000    2.476000
H      0.429000    1.010000    2.602000
H     -1.882000   -0.038000   -1.106000
H     -0.515000   -0.876000   -1.863000
H     -0.559000    0.879000   -1.850000
C      4.302800    1.316900    0.041500
C      4.131900    1.549100    1.406200
C      3.729400    2.823300    1.756800
C      3.536300    3.739500    0.724100
Br     4.850800   -0.390600   -0.542400
N      4.108400    2.218900   -0.916900
N      3.717900    3.452900   -0.568500
H      4.307700    0.769400    2.131600
H      3.569300    3.103700    2.788100
H      3.221700    4.755100    0.920600
