22

O      1.224000    0.000000    0.000000
C      0.000000    0.000000    0.000000
N     -0.718000    0.000000    1.154000
H     -1.717000    0.061000    1.108000
C     -0.809000   -0.010000   -1.276000
C     -0.049000    0.046000    2.436000
H     -0.777000   -0.133000    3.221000
H      0.720000   -0.720000    2.476000
H      0.429000    1.010000    2.602000
H     -1.882000   -0.038000   -1.106000
H     -0.515000   -0.876000   -1.863000
H     -0.559000    0.879000   -1.850000
C      0.493000    4.813000    3.044700
C      0.910200    5.472700    1.888800
C      1.490200    6.712400    2.076100
C      1.599600    7.175600    3.386400
Br    -0.311600    3.113700    2.898100
N      0.614600    5.288400    4.281400
N      1.178500    6.492000    4.454700
H      0.780300    5.027400    0.914100
H      1.846300    7.303300    1.244400
H      2.042000    8.136000    3.611600
