22

O      1.224000    0.000000    0.000000
C      0.000000    0.000000    0.000000
N     -0.718000    0.000000    1.154000
H     -1.717000    0.061000    1.108000
C     -0.809000   -0.010000   -1.276000
C     -0.049000    0.046000    2.436000
H     -0.777000   -0.133000    3.221000
H      0.720000   -0.720000    2.476000
H      0.429000    1.010000    2.602000
H     -1.882000   -0.038000   -1.106000
H     -0.515000   -0.876000   -1.863000
H     -0.559000    0.879000   -1.850000
C      3.655500    3.456900    0.937300
C      2.989900    4.136700    1.957300
C      2.940700    5.511800    1.835400
C      3.553900    6.076900    0.718200
Br     3.779000    1.576400    1.009300
N      4.229800    4.032300   -0.115800
N      4.177700    5.367100   -0.226800
H      2.545500    3.605200    2.785100
H      2.448300    6.129200    2.573000
H      3.556600    7.145600    0.554600
