
     RDKit          3D

105110  0  0  0  0  0  0  0  0999 V2000
   12.9920   25.2450    2.2460 C   0  0  2  0  0  0  0  0  0  0  0  0
   13.2470   21.8139    5.5550 N   0  0  0  0  0  0  0  0  0  0  0  0
   11.0439   21.8010    4.9590 O   0  0  0  0  0  0  0  0  0  0  0  0
   12.9452   24.3430    3.5200 C   0  0  1  0  0  0  0  0  0  0  0  0
   12.7459   23.1493   10.9136 N   0  0  0  0  0  0  0  0  0  0  0  0
   12.3648   21.6657    9.0191 O   0  0  0  0  0  0  0  0  0  0  0  0
   12.3600   22.9540    3.3600 C   0  0  1  0  0  0  0  0  0  0  0  0
   13.0881   24.7003   12.6769 N   0  0  0  0  0  0  0  0  0  0  0  0
   14.8948   24.4954   14.0284 O   0  0  0  0  0  0  0  0  0  0  0  0
   12.1671   22.1730    4.6640 C   0  0  0  0  0  0  0  0  0  0  0  0
   11.0740   23.0839    2.7409 N   0  0  0  0  0  0  0  0  0  0  0  0
   11.3797   24.9630   11.2232 O   0  0  0  0  0  0  0  0  0  0  0  0
   12.8770   21.0441    6.7630 C   0  0  0  0  0  0  0  0  0  0  0  0
    9.3580   22.2941    0.1179 N   0  0  0  0  0  0  0  0  0  0  0  0
   12.5977   24.4332    7.5735 O   0  0  0  0  0  0  0  0  0  0  0  0
   13.2346   21.5966    7.9408 C   0  0  0  0  0  0  0  0  0  0  0  0
    9.1160   23.9400   -1.7769 N   0  0  0  0  0  0  0  0  0  0  0  0
   11.0900   20.8449    2.1490 O   0  0  0  0  0  0  0  0  0  0  0  0
   14.2055   22.7270    8.0633 C   0  0  1  0  0  0  0  0  0  0  0  0
    9.1108   29.4193   -0.2305 N   0  0  0  0  0  0  0  0  0  0  0  0
    8.3850   24.3620    0.3750 O   0  0  0  0  0  0  0  0  0  0  0  0
   13.2904   23.8070    8.6226 C   0  0  2  0  0  0  0  0  0  0  0  0
   14.4909   24.1539    3.9428 N   0  0  0  0  0  0  0  0  0  0  0  0
    8.5970   24.4000   -4.4400 O   0  0  0  0  0  0  0  0  0  0  0  0
   12.3057   23.0102    9.5116 C   0  0  2  0  0  0  0  0  0  0  0  0
   17.4586   23.0507    5.3384 N   0  0  0  0  0  0  0  0  0  0  0  0
    6.9339   25.7091   -3.8230 O   0  0  0  0  0  0  0  0  0  0  0  0
   13.7934   22.4000   11.3762 C   0  0  0  0  0  0  0  0  0  0  0  0
   14.7787   25.3645    5.9766 O   0  0  0  0  0  0  0  0  0  0  0  0
   14.5488   22.8333   12.4641 C   0  0  0  0  0  0  0  0  0  0  0  0
   21.2426   22.1983    8.6520 O   0  0  0  0  0  0  0  0  0  0  0  0
   14.1924   24.0283   13.0906 C   0  0  0  0  0  0  0  0  0  0  0  0
   12.3676   24.2760   11.6053 C   0  0  0  0  0  0  0  0  0  0  0  0
   10.4830   21.9021    2.1170 C   0  0  0  0  0  0  0  0  0  0  0  0
    9.1500   21.9850    1.4511 C   0  0  2  0  0  0  0  0  0  0  0  0
    8.3711   20.6667    1.5646 C   0  0  2  0  0  0  0  0  0  0  0  0
    8.9210   23.5809   -0.3880 C   0  0  0  0  0  0  0  0  0  0  0  0
    8.6500   25.2230   -2.1840 C   0  0  1  0  0  0  0  0  0  0  0  0
    9.8080   26.2191   -2.1210 C   0  0  2  0  0  0  0  0  0  0  0  0
    9.6763   27.3358   -1.0291 C   0  0  0  0  0  0  0  0  0  0  0  0
    9.3445   28.6860   -1.3302 C   0  0  0  0  0  0  0  0  0  0  0  0
    9.2931   28.5920    0.7973 C   0  0  0  0  0  0  0  0  0  0  0  0
    9.1182   28.9156    2.1401 C   0  0  0  0  0  0  0  0  0  0  0  0
    9.3403   27.9140    3.0880 C   0  0  0  0  0  0  0  0  0  0  0  0
    9.7651   26.6400    2.6771 C   0  0  0  0  0  0  0  0  0  0  0  0
    9.9720   26.3521    1.3073 C   0  0  0  0  0  0  0  0  0  0  0  0
    9.6680   27.3310    0.3715 C   0  0  0  0  0  0  0  0  0  0  0  0
    8.0291   25.1109   -3.5590 C   0  0  0  0  0  0  0  0  0  0  0  0
   15.3458   23.4931    2.9314 C   0  0  2  0  0  0  0  0  0  0  0  0
   15.3523   24.6694    5.0991 C   0  0  0  0  0  0  0  0  0  0  0  0
   17.0083   24.4795    5.2733 C   0  0  1  0  0  0  0  0  0  0  0  0
   17.8312   25.3432    6.4121 C   0  0  1  0  0  0  0  0  0  0  0  0
   19.3693   24.9582    6.9201 C   0  0  1  0  0  0  0  0  0  0  0  0
   19.4761   23.0406    6.9787 C   0  0  1  0  0  0  0  0  0  0  0  0
   18.9548   22.9505    5.4414 C   0  0  2  0  0  0  0  0  0  0  0  0
   21.0398   22.9448    7.4837 C   0  0  0  0  0  0  0  0  0  0  0  0
   22.1930   23.5400    6.7570 C   0  0  0  0  0  0  0  0  0  0  0  0
   22.1050   24.8486    5.5323 C   0  0  0  0  0  0  0  0  0  0  0  0
   20.7398   25.4671    5.8701 C   0  0  0  0  0  0  0  0  0  0  0  0
   19.5187   25.4178    7.9237 H   0  0  0  0  0  0  0  0  0  0  0  0
   18.7723   22.5508    7.6905 H   0  0  0  0  0  0  0  0  0  0  0  0
   13.9706   25.7146    2.3459 H   0  0  0  0  0  0  0  0  0  0  0  0
   12.2772   26.0755    2.3052 H   0  0  0  0  0  0  0  0  0  0  0  0
   12.9085   24.6707    1.2992 H   0  0  0  0  0  0  0  0  0  0  0  0
   12.2698   24.8564    4.2045 H   0  0  0  0  0  0  0  0  0  0  0  0
   13.0808   22.3914    2.7666 H   0  0  0  0  0  0  0  0  0  0  0  0
   14.2036   22.0750    5.3631 H   0  0  0  0  0  0  0  0  0  0  0  0
   11.8139   20.8429    6.6305 H   0  0  0  0  0  0  0  0  0  0  0  0
   14.9914   22.4872    8.8077 H   0  0  0  0  0  0  0  0  0  0  0  0
   14.7188   23.0577    7.1504 H   0  0  0  0  0  0  0  0  0  0  0  0
   13.8881   24.5592    9.1898 H   0  0  0  0  0  0  0  0  0  0  0  0
   11.2622   23.3753    9.3850 H   0  0  0  0  0  0  0  0  0  0  0  0
   14.1200   21.5152   10.8448 H   0  0  0  0  0  0  0  0  0  0  0  0
   15.4297   22.2744   12.7599 H   0  0  0  0  0  0  0  0  0  0  0  0
   12.8103   25.5817   13.1668 H   0  0  0  0  0  0  0  0  0  0  0  0
   12.1710   25.2411    7.9615 H   0  0  0  0  0  0  0  0  0  0  0  0
   10.5886   23.9697    2.7361 H   0  0  0  0  0  0  0  0  0  0  0  0
    8.5310   22.7331    1.9462 H   0  0  0  0  0  0  0  0  0  0  0  0
    8.2255   20.3997    2.6336 H   0  0  0  0  0  0  0  0  0  0  0  0
    8.9092   19.8374    1.0561 H   0  0  0  0  0  0  0  0  0  0  0  0
    7.3710   20.7780    1.0933 H   0  0  0  0  0  0  0  0  0  0  0  0
    9.8076   21.6356   -0.4916 H   0  0  0  0  0  0  0  0  0  0  0  0
    9.5621   23.3094   -2.4277 H   0  0  0  0  0  0  0  0  0  0  0  0
    7.8744   25.5949   -1.5145 H   0  0  0  0  0  0  0  0  0  0  0  0
    9.5231   26.9888   -2.8383 H   0  0  0  0  0  0  0  0  0  0  0  0
   10.8342   25.8162   -2.2580 H   0  0  0  0  0  0  0  0  0  0  0  0
    9.2356   29.0992   -2.3260 H   0  0  0  0  0  0  0  0  0  0  0  0
    8.8231   30.4227   -0.1951 H   0  0  0  0  0  0  0  0  0  0  0  0
    8.8093   29.9081    2.4422 H   0  0  0  0  0  0  0  0  0  0  0  0
    9.2053   28.1267    4.1407 H   0  0  0  0  0  0  0  0  0  0  0  0
    9.9668   25.9045    3.4389 H   0  0  0  0  0  0  0  0  0  0  0  0
   10.4041   25.4168    0.9917 H   0  0  0  0  0  0  0  0  0  0  0  0
   16.1882   24.1514    2.6397 H   0  0  0  0  0  0  0  0  0  0  0  0
   14.8202   23.2945    1.9772 H   0  0  0  0  0  0  0  0  0  0  0  0
   15.7314   22.5309    3.3276 H   0  0  0  0  0  0  0  0  0  0  0  0
   17.4078   24.8947    4.3251 H   0  0  0  0  0  0  0  0  0  0  0  0
   17.8369   26.4084    6.0988 H   0  0  0  0  0  0  0  0  0  0  0  0
   17.1997   25.3033    7.3245 H   0  0  0  0  0  0  0  0  0  0  0  0
   19.2840   23.7442    4.7114 H   0  0  0  0  0  0  0  0  0  0  0  0
   19.4969   22.3785    4.6990 H   0  0  0  0  0  0  0  0  0  0  0  0
   17.0164   22.5997    6.1714 H   0  0  0  0  0  0  0  0  0  0  0  0
   22.7213   23.6476    7.6872 H   0  0  0  0  0  0  0  0  0  0  0  0
   22.9036   25.3162    4.9735 H   0  0  0  0  0  0  0  0  0  0  0  0
   20.5458   26.4042    5.3666 H   0  0  0  0  0  0  0  0  0  0  0  0
   22.1652   22.0021    9.0228 H   0  0  0  0  0  0  0  0  0  0  0  0
  1  4  1  0
  1 62  1  6
  1 63  1  0
  1 64  1  0
  2 13  1  0
  2 67  1  0
  2 10  1  0
  3 10  2  0
  4  7  1  0
  4 23  1  0
  4 65  1  1
  5 28  1  0
  5 33  1  0
  5 25  1  0
  6 16  1  0
  6 25  1  0
  7 10  1  0
  7 11  1  0
  7 66  1  6
  8 33  1  0
  8 75  1  0
  8 32  1  0
  9 32  2  0
 11 34  1  0
 11 77  1  0
 12 33  2  0
 13 16  2  3
 13 68  1  0
 14 37  1  0
 14 82  1  0
 14 35  1  0
 15 76  1  0
 15 22  1  0
 16 19  1  0
 17 38  1  0
 17 83  1  0
 17 37  1  0
 18 34  2  0
 19 22  1  0
 19 69  1  1
 19 70  1  0
 20 42  1  0
 20 88  1  0
 20 41  1  0
 21 37  2  0
 22 25  1  0
 22 71  1  1
 23 49  1  0
 23 50  1  0
 24 48  2  0
 25 72  1  1
 26101  1  0
 26 51  1  0
 26 55  1  0
 27 48  1  0
 28 30  2  0
 28 73  1  0
 29 50  2  0
 30 32  1  0
 30 74  1  0
 31105  1  0
 31 56  1  0
 34 35  1  0
 35 36  1  0
 35 78  1  6
 36 79  1  1
 36 80  1  0
 36 81  1  0
 38 39  1  0
 38 48  1  0
 38 84  1  1
 39 40  1  0
 39 85  1  1
 39 86  1  0
 40 41  2  0
 40 47  1  0
 41 87  1  0
 42 43  2  0
 42 47  1  0
 43 44  1  0
 43 89  1  0
 44 45  2  0
 44 90  1  0
 45 46  1  0
 45 91  1  0
 46 47  2  0
 46 92  1  0
 49 93  1  6
 49 94  1  0
 49 95  1  0
 50 51  1  0
 51 52  1  0
 51 96  1  6
 52 53  1  0
 52 97  1  6
 52 98  1  0
 53 54  1  0
 53 59  1  0
 53 60  1  1
 54 55  1  0
 54 56  1  0
 54 61  1  1
 55 99  1  6
 55100  1  0
 56 57  2  0
 57 58  1  0
 57102  1  0
 58 59  2  0
 58103  1  0
 59104  1  0
M  CHG  1  27  -1
M  END
$$$$
