
     RDKit          3D

105110  0  0  0  0  0  0  0  0999 V2000
    0.0750    0.3600    2.8980 C   0  0  2  0  0  0  0  0  0  0  0  0
   -1.0500    1.6970   -1.0850 N   0  0  0  0  0  0  0  0  0  0  0  0
    0.1880    2.5970    0.6180 O   0  0  0  0  0  0  0  0  0  0  0  0
   -0.3190   -0.3710    1.5860 C   0  0  1  0  0  0  0  0  0  0  0  0
   -3.9930    1.5980   -5.3030 N   0  0  0  0  0  0  0  0  0  0  0  0
   -2.4550    1.7770   -3.5150 O   0  0  0  0  0  0  0  0  0  0  0  0
    0.3290    0.2170    0.2880 C   0  0  1  0  0  0  0  0  0  0  0  0
   -5.4010    0.8330   -6.9680 N   0  0  0  0  0  0  0  0  0  0  0  0
   -7.5710    0.2270   -6.6050 O   0  0  0  0  0  0  0  0  0  0  0  0
   -0.1900    1.6300   -0.0510 C   0  0  0  0  0  0  0  0  0  0  0  0
    1.7960    0.2250    0.2910 N   0  0  0  0  0  0  0  0  0  0  0  0
   -3.2820    1.3930   -7.5150 O   0  0  0  0  0  0  0  0  0  0  0  0
   -1.5560    2.8410   -1.6150 C   0  0  0  0  0  0  0  0  0  0  0  0
    4.6890    0.0870   -1.5400 N   0  0  0  0  0  0  0  0  0  0  0  0
   -1.2020    3.9340   -5.3840 O   0  0  0  0  0  0  0  0  0  0  0  0
   -2.2380    2.8880   -2.7710 C   0  0  1  0  0  0  0  0  0  0  0  0
    5.0370    0.2420   -3.7260 N   0  0  0  0  0  0  0  0  0  0  0  0
    2.1610   -1.5780   -1.0470 O   0  0  0  0  0  0  0  0  0  0  0  0
   -2.8110    4.0580   -3.5260 C   0  0  1  0  0  0  0  0  0  0  0  0
    0.6410    1.2980   -3.9100 N   0  0  0  0  0  0  0  0  0  0  0  0
    4.5990   -1.8000   -2.8200 O   0  0  0  0  0  0  0  0  0  0  0  0
   -2.5230    3.6420   -4.9590 C   0  0  2  0  0  0  0  0  0  0  0  0
   -0.2080   -1.8540    1.6640 N   0  0  0  0  0  0  0  0  0  0  0  0
    7.3420   -0.2220   -5.2660 O   0  0  0  0  0  0  0  0  0  0  0  0
   -2.7080    2.1250   -4.8510 C   0  0  2  0  0  0  0  0  0  0  0  0
    0.5060   -4.6350    3.1440 N   0  0  0  0  0  0  0  0  0  0  0  0
    6.2480    0.4800   -7.1030 O   0  0  0  0  0  0  0  0  0  0  0  0
   -5.0570    1.4960   -4.4330 C   0  0  0  0  0  0  0  0  0  0  0  0
    1.8810   -1.9460    2.5530 O   0  0  0  0  0  0  0  0  0  0  0  0
   -6.2770    1.0610   -4.8020 C   0  0  0  0  0  0  0  0  0  0  0  0
    2.3470   -8.4460    3.9320 O   0  0  0  0  0  0  0  0  0  0  0  0
   -6.5050    0.6680   -6.1810 C   0  0  0  0  0  0  0  0  0  0  0  0
   -4.1460    1.2870   -6.6430 C   0  0  0  0  0  0  0  0  0  0  0  0
    2.5840   -0.6250   -0.3890 C   0  0  0  0  0  0  0  0  0  0  0  0
    4.1040   -0.3750   -0.2730 C   0  0  1  0  0  0  0  0  0  0  0  0
    4.8590   -1.5960    0.2920 C   0  0  2  0  0  0  0  0  0  0  0  0
    4.7830   -0.5870   -2.6990 C   0  0  0  0  0  0  0  0  0  0  0  0
    4.9360   -0.1090   -5.1570 C   0  0  1  0  0  0  0  0  0  0  0  0
    3.7390    0.6580   -5.8050 C   0  0  1  0  0  0  0  0  0  0  0  0
    2.4320    0.6210   -5.0580 C   0  0  0  0  0  0  0  0  0  0  0  0
    1.7880    1.7010   -4.5580 C   0  0  0  0  0  0  0  0  0  0  0  0
    0.4880   -0.0720   -3.9440 C   0  0  0  0  0  0  0  0  0  0  0  0
   -0.4860   -0.9470   -3.4300 C   0  0  0  0  0  0  0  0  0  0  0  0
   -0.3380   -2.3310   -3.6270 C   0  0  0  0  0  0  0  0  0  0  0  0
    0.7730   -2.8220   -4.3390 C   0  0  0  0  0  0  0  0  0  0  0  0
    1.7390   -1.9350   -4.8570 C   0  0  0  0  0  0  0  0  0  0  0  0
    1.6240   -0.5360   -4.6750 C   0  0  0  0  0  0  0  0  0  0  0  0
    6.3150    0.1040   -5.9090 C   0  0  0  0  0  0  0  0  0  0  0  0
   -1.4180   -2.5280    1.1690 C   0  0  2  0  0  0  0  0  0  0  0  0
    0.9130   -2.5300    2.0580 C   0  0  0  0  0  0  0  0  0  0  0  0
    1.0110   -4.0730    1.8830 C   0  0  1  0  0  0  0  0  0  0  0  0
    2.4680   -4.5240    1.5390 C   0  0  1  0  0  0  0  0  0  0  0  0
    3.2850   -4.9350    2.7820 C   0  0  1  0  0  0  0  0  0  0  0  0
    2.5150   -6.0600    3.5840 C   0  0  1  0  0  0  0  0  0  0  0  0
    0.9690   -6.0030    3.3850 C   0  0  2  0  0  0  0  0  0  0  0  0
    3.1440   -7.4580    3.4440 C   0  0  0  0  0  0  0  0  0  0  0  0
    4.3700   -7.6630    2.9340 C   0  0  0  0  0  0  0  0  0  0  0  0
    5.1910   -6.5670    2.4740 C   0  0  0  0  0  0  0  0  0  0  0  0
    4.7200   -5.3110    2.4010 C   0  0  0  0  0  0  0  0  0  0  0  0
    3.3580   -4.0620    3.4320 H   0  0  0  0  0  0  0  0  0  0  0  0
    2.6730   -5.8360    4.6410 H   0  0  0  0  0  0  0  0  0  0  0  0
   -0.3120    1.3790    2.9140 H   0  0  0  0  0  0  0  0  0  0  0  0
    1.1540    0.4270    3.0330 H   0  0  0  0  0  0  0  0  0  0  0  0
   -0.3410   -0.1470    3.7700 H   0  0  0  0  0  0  0  0  0  0  0  0
   -1.3870   -0.1620    1.5010 H   0  0  0  0  0  0  0  0  0  0  0  0
   -0.0010   -0.4350   -0.5240 H   0  0  0  0  0  0  0  0  0  0  0  0
   -1.2840    0.8400   -1.5650 H   0  0  0  0  0  0  0  0  0  0  0  0
   -1.3600    3.7340   -1.0370 H   0  0  0  0  0  0  0  0  0  0  0  0
   -3.8860    4.1390   -3.3560 H   0  0  0  0  0  0  0  0  0  0  0  0
   -2.3610    5.0170   -3.2660 H   0  0  0  0  0  0  0  0  0  0  0  0
   -3.2450    4.0680   -5.6570 H   0  0  0  0  0  0  0  0  0  0  0  0
   -1.9580    1.5850   -5.4370 H   0  0  0  0  0  0  0  0  0  0  0  0
   -4.8360    1.8030   -3.4220 H   0  0  0  0  0  0  0  0  0  0  0  0
   -7.0850    1.0010   -4.0880 H   0  0  0  0  0  0  0  0  0  0  0  0
   -5.5270    0.5830   -7.9380 H   0  0  0  0  0  0  0  0  0  0  0  0
   -1.1310    3.7390   -6.3220 H   0  0  0  0  0  0  0  0  0  0  0  0
    2.2230    0.9670    0.8280 H   0  0  0  0  0  0  0  0  0  0  0  0
    4.2700    0.4490    0.4230 H   0  0  0  0  0  0  0  0  0  0  0  0
    4.5200   -1.8270    1.3020 H   0  0  0  0  0  0  0  0  0  0  0  0
    5.9310   -1.4050    0.3450 H   0  0  0  0  0  0  0  0  0  0  0  0
    4.7120   -2.4920   -0.3120 H   0  0  0  0  0  0  0  0  0  0  0  0
    5.0090    1.0440   -1.5280 H   0  0  0  0  0  0  0  0  0  0  0  0
    5.2020    1.2190   -3.5320 H   0  0  0  0  0  0  0  0  0  0  0  0
    4.7310   -1.1760   -5.2660 H   0  0  0  0  0  0  0  0  0  0  0  0
    4.0040    1.7070   -5.9490 H   0  0  0  0  0  0  0  0  0  0  0  0
    3.5400    0.2590   -6.8010 H   0  0  0  0  0  0  0  0  0  0  0  0
    2.1320    2.7200   -4.6600 H   0  0  0  0  0  0  0  0  0  0  0  0
    0.0080    1.9510   -3.4710 H   0  0  0  0  0  0  0  0  0  0  0  0
   -1.3350   -0.5640   -2.8830 H   0  0  0  0  0  0  0  0  0  0  0  0
   -1.0740   -3.0160   -3.2310 H   0  0  0  0  0  0  0  0  0  0  0  0
    0.8890   -3.8860   -4.4880 H   0  0  0  0  0  0  0  0  0  0  0  0
    2.5870   -2.3300   -5.3960 H   0  0  0  0  0  0  0  0  0  0  0  0
   -1.4760   -3.5860    1.4190 H   0  0  0  0  0  0  0  0  0  0  0  0
   -1.4900   -2.4250    0.0860 H   0  0  0  0  0  0  0  0  0  0  0  0
   -2.3070   -2.0740    1.6080 H   0  0  0  0  0  0  0  0  0  0  0  0
    0.3790   -4.3640    1.0450 H   0  0  0  0  0  0  0  0  0  0  0  0
    2.3830   -5.3800    0.8660 H   0  0  0  0  0  0  0  0  0  0  0  0
    2.9940   -3.7630    0.9600 H   0  0  0  0  0  0  0  0  0  0  0  0
    0.6900   -6.5640    2.4910 H   0  0  0  0  0  0  0  0  0  0  0  0
    0.4350   -6.4240    4.2390 H   0  0  0  0  0  0  0  0  0  0  0  0
    0.8910   -4.0680    3.8870 H   0  0  0  0  0  0  0  0  0  0  0  0
    4.7580   -8.6700    2.8730 H   0  0  0  0  0  0  0  0  0  0  0  0
    6.2150   -6.7630    2.1920 H   0  0  0  0  0  0  0  0  0  0  0  0
    5.3870   -4.5380    2.0470 H   0  0  0  0  0  0  0  0  0  0  0  0
    1.5220   -8.0680    4.2450 H   0  0  0  0  0  0  0  0  0  0  0  0
  1  4  1  0
  1 62  1  6
  1 63  1  0
  1 64  1  0
  2 13  1  0
  2 67  1  0
  2 10  1  0
  3 10  2  0
  4  7  1  0
  4 23  1  0
  4 65  1  6
  5 28  1  0
  5 33  1  0
  5 25  1  0
 16  6  1  6
  6 25  1  0
  7 10  1  0
  7 11  1  0
  7 66  1  6
  8 33  1  0
  8 75  1  0
  8 32  1  0
  9 32  2  0
 11 34  1  0
 11 77  1  0
 12 33  2  0
 13 16  2  0
 13 68  1  0
 14 37  1  0
 14 82  1  0
 14 35  1  0
 15 76  1  0
 15 22  1  0
 16 19  1  0
 17 38  1  0
 17 83  1  0
 17 37  1  0
 18 34  2  0
 19 22  1  0
 19 69  1  6
 19 70  1  0
 20 42  1  0
 20 88  1  0
 20 41  1  0
 21 37  2  0
 22 25  1  0
 22 71  1  6
 23 49  1  0
 23 50  1  0
 24 48  2  0
 25 72  1  6
 26101  1  0
 26 51  1  0
 26 55  1  0
 48 27  1  6
 28 30  2  0
 28 73  1  0
 29 50  2  0
 30 32  1  0
 30 74  1  0
 31105  1  0
 31 56  1  0
 34 35  1  0
 35 36  1  0
 35 78  1  1
 36 79  1  1
 36 80  1  0
 36 81  1  0
 38 39  1  0
 38 48  1  0
 38 84  1  1
 39 40  1  0
 39 85  1  6
 39 86  1  0
 40 41  2  0
 40 47  1  0
 41 87  1  0
 42 43  1  0
 42 47  2  0
 43 44  2  0
 43 89  1  0
 44 45  1  0
 44 90  1  0
 45 46  2  0
 45 91  1  0
 46 47  1  0
 46 92  1  0
 49 93  1  6
 49 94  1  0
 49 95  1  0
 50 51  1  0
 51 52  1  0
 51 96  1  6
 52 53  1  0
 52 97  1  6
 52 98  1  0
 53 54  1  0
 53 59  1  0
 53 60  1  1
 54 55  1  0
 54 56  1  0
 54 61  1  1
 55 99  1  6
 55100  1  0
 56 57  2  0
 57 58  1  0
 57102  1  0
 58 59  2  0
 58103  1  0
 59104  1  0
M  CHG  1  27  -1
M  END
$$$$
