22

O      1.224000    0.000000    0.000000
C      0.000000    0.000000    0.000000
N     -0.718000    0.000000    1.154000
H     -1.717000    0.061000    1.108000
C     -0.809000   -0.010000   -1.276000
C     -0.049000    0.046000    2.436000
H     -0.777000   -0.133000    3.221000
H      0.720000   -0.720000    2.476000
H      0.429000    1.010000    2.602000
H     -1.882000   -0.038000   -1.106000
H     -0.515000   -0.876000   -1.863000
H     -0.559000    0.879000   -1.850000
C      4.298800   -4.030500    1.359100
C      4.950100   -4.878500    0.463400
C      5.124700   -6.182800    0.883800
C      4.638200   -6.518000    2.146500
Br     4.010500   -2.229100    0.881000
N      3.847700   -4.387800    2.558600
N      4.020900   -5.655200    2.959200
H      5.291000   -4.521300   -0.496500
H      5.617500   -6.917400    0.263200
H      4.737900   -7.518600    2.543500
