22

O      1.224000    0.000000    0.000000
C      0.000000    0.000000    0.000000
N     -0.718000    0.000000    1.154000
H     -1.717000    0.061000    1.108000
C     -0.809000   -0.010000   -1.276000
C     -0.049000    0.046000    2.436000
H     -0.777000   -0.133000    3.221000
H      0.720000   -0.720000    2.476000
H      0.429000    1.010000    2.602000
H     -1.882000   -0.038000   -1.106000
H     -0.515000   -0.876000   -1.863000
H     -0.559000    0.879000   -1.850000
C      1.091100    0.737400   -3.446600
C      1.394700   -0.609900   -3.641800
C      2.585100   -1.046900   -3.093800
C      3.355600   -0.109100   -2.408100
Br    -0.511700    1.434300   -4.155100
N      1.853500    1.603900   -2.784700
N      3.007000    1.172000   -2.255900
H      0.728800   -1.258500   -4.190500
H      2.910500   -2.072900   -3.189700
H      4.298800   -0.376600   -1.952400
