22

O      1.224000    0.000000    0.000000
C      0.000000    0.000000    0.000000
N     -0.718000    0.000000    1.154000
H     -1.717000    0.061000    1.108000
C     -0.809000   -0.010000   -1.276000
C     -0.049000    0.046000    2.436000
H     -0.777000   -0.133000    3.221000
H      0.720000   -0.720000    2.476000
H      0.429000    1.010000    2.602000
H     -1.882000   -0.038000   -1.106000
H     -0.515000   -0.876000   -1.863000
H     -0.559000    0.879000   -1.850000
C      2.446000    1.433700   -3.013900
C      3.196800    2.538100   -2.611400
C      2.504100    3.726700   -2.486100
C      1.139700    3.704600   -2.771000
Br     3.297300   -0.237100   -3.215200
N      1.142100    1.451600   -3.277500
N      0.477200    2.608900   -3.153500
H      4.254500    2.452200   -2.413700
H      2.995000    4.639500   -2.180000
H      0.531700    4.595400   -2.695300
