22

O      1.224000    0.000000    0.000000
C      0.000000    0.000000    0.000000
N     -0.718000    0.000000    1.154000
H     -1.717000    0.061000    1.108000
C     -0.809000   -0.010000   -1.276000
C     -0.049000    0.046000    2.436000
H     -0.777000   -0.133000    3.221000
H      0.720000   -0.720000    2.476000
H      0.429000    1.010000    2.602000
H     -1.882000   -0.038000   -1.106000
H     -0.515000   -0.876000   -1.863000
H     -0.559000    0.879000   -1.850000
C      3.863700   -3.156200    1.787800
C      3.278000   -2.840700    3.013700
C      2.946600   -3.913000    3.819200
C      3.227100   -5.188800    3.332500
Br     4.353900   -1.764100    0.613800
N      4.116300   -4.389400    1.357000
N      3.791700   -5.424400    2.144400
H      3.101200   -1.815200    3.300700
H      2.488400   -3.774100    4.788000
H      2.996400   -6.076100    3.905700
