22

O      1.224000    0.000000    0.000000
C      0.000000    0.000000    0.000000
N     -0.718000    0.000000    1.154000
H     -1.717000    0.061000    1.108000
C     -0.809000   -0.010000   -1.276000
C     -0.049000    0.046000    2.436000
H     -0.777000   -0.133000    3.221000
H      0.720000   -0.720000    2.476000
H      0.429000    1.010000    2.602000
H     -1.882000   -0.038000   -1.106000
H     -0.515000   -0.876000   -1.863000
H     -0.559000    0.879000   -1.850000
C     -1.253800    3.394100   -1.725600
C     -0.933500    4.751600   -1.717700
C     -1.674800    5.542500   -0.861300
C     -2.657600    4.912800   -0.099100
Br    -0.300400    2.227700   -2.860200
N     -2.200900    2.828500   -0.981900
N     -2.915700    3.602800   -0.153500
H     -0.150900    5.144400   -2.348800
H     -1.503900    6.606600   -0.781500
H     -3.277400    5.465900    0.592900
