22

O      1.224000    0.000000    0.000000
C      0.000000    0.000000    0.000000
N     -0.718000    0.000000    1.154000
H     -1.717000    0.061000    1.108000
C     -0.809000   -0.010000   -1.276000
C     -0.049000    0.046000    2.436000
H     -0.777000   -0.133000    3.221000
H      0.720000   -0.720000    2.476000
H      0.429000    1.010000    2.602000
H     -1.882000   -0.038000   -1.106000
H     -0.515000   -0.876000   -1.863000
H     -0.559000    0.879000   -1.850000
C      0.144700   -2.824800   -4.235500
C     -0.152900   -4.033800   -3.606800
C     -0.755500   -4.993700   -4.396700
C     -1.003200   -4.662600   -5.728000
Br     0.968600   -1.447800   -3.244700
N     -0.107600   -2.545200   -5.511500
N     -0.692400   -3.481900   -6.271300
H      0.080000   -4.193600   -2.565000
H     -1.025800   -5.963400   -4.003700
H     -1.471500   -5.361800   -6.406800
