22

O      1.224000    0.000000    0.000000
C      0.000000    0.000000    0.000000
N     -0.718000    0.000000    1.154000
H     -1.717000    0.061000    1.108000
C     -0.809000   -0.010000   -1.276000
C     -0.049000    0.046000    2.436000
H     -0.777000   -0.133000    3.221000
H      0.720000   -0.720000    2.476000
H      0.429000    1.010000    2.602000
H     -1.882000   -0.038000   -1.106000
H     -0.515000   -0.876000   -1.863000
H     -0.559000    0.879000   -1.850000
C      5.510600   -2.601100   -0.888700
C      5.307600   -3.242500    0.333100
C      5.312800   -4.623500    0.299100
C      5.518000   -5.231800   -0.938300
Br     5.521600   -0.716300   -0.950900
N      5.703500   -3.217400   -2.051900
N      5.707100   -4.557600   -2.076500
H      5.157100   -2.679000    1.241400
H      5.164300   -5.213300    1.192500
H      5.535100   -6.307700   -1.043600
