22

O      1.224000    0.000000    0.000000
C      0.000000    0.000000    0.000000
N     -0.718000    0.000000    1.154000
H     -1.717000    0.061000    1.108000
C     -0.809000   -0.010000   -1.276000
C     -0.049000    0.046000    2.436000
H     -0.777000   -0.133000    3.221000
H      0.720000   -0.720000    2.476000
H      0.429000    1.010000    2.602000
H     -1.882000   -0.038000   -1.106000
H     -0.515000   -0.876000   -1.863000
H     -0.559000    0.879000   -1.850000
C      5.739600   -1.120000    1.319400
C      6.414100   -0.481200    2.359800
C      7.770200   -0.292800    2.175400
C      8.323300   -0.754500    0.982000
Br     3.884900   -1.425400    1.472200
N      6.303300   -1.547400    0.192600
N      7.619500   -1.360900    0.021300
H      5.893100   -0.159600    3.248700
H      8.382000    0.192000    2.922700
H      9.376900   -0.642900    0.766600
