22

O      1.224000    0.000000    0.000000
C      0.000000    0.000000    0.000000
N     -0.718000    0.000000    1.154000
H     -1.717000    0.061000    1.108000
C     -0.809000   -0.010000   -1.276000
C     -0.049000    0.046000    2.436000
H     -0.777000   -0.133000    3.221000
H      0.720000   -0.720000    2.476000
H      0.429000    1.010000    2.602000
H     -1.882000   -0.038000   -1.106000
H     -0.515000   -0.876000   -1.863000
H     -0.559000    0.879000   -1.850000
C      4.022200   -0.864200   -4.405500
C      3.957600   -2.234000   -4.660500
C      4.696600   -2.683900   -5.737500
C      5.424800   -1.735500   -6.454000
Br     3.049400   -0.148300   -2.957100
N      4.730200    0.011900   -5.113500
N      5.444600   -0.432600   -6.156900
H      3.361400   -2.889200   -4.043800
H      4.713000   -3.727500   -6.017500
H      6.026500   -2.012000   -7.308600
