22

O      1.224000    0.000000    0.000000
C      0.000000    0.000000    0.000000
N     -0.718000    0.000000    1.154000
H     -1.717000    0.061000    1.108000
C     -0.809000   -0.010000   -1.276000
C     -0.049000    0.046000    2.436000
H     -0.777000   -0.133000    3.221000
H      0.720000   -0.720000    2.476000
H      0.429000    1.010000    2.602000
H     -1.882000   -0.038000   -1.106000
H     -0.515000   -0.876000   -1.863000
H     -0.559000    0.879000   -1.850000
C      4.239700   -1.996500    4.793100
C      3.836400   -2.863700    5.808300
C      4.836700   -3.614500    6.395000
C      6.134500   -3.433100    5.919600
Br     2.950700   -0.926300    3.927300
N      5.491200   -1.850600    4.365700
N      6.456000   -2.582800    4.940000
H      2.801000   -2.932000    6.105800
H      4.627200   -4.315400    7.190300
H      6.969100   -3.985000    6.329200
