22

O      1.224000    0.000000    0.000000
C      0.000000    0.000000    0.000000
N     -0.718000    0.000000    1.154000
H     -1.717000    0.061000    1.108000
C     -0.809000   -0.010000   -1.276000
C     -0.049000    0.046000    2.436000
H     -0.777000   -0.133000    3.221000
H      0.720000   -0.720000    2.476000
H      0.429000    1.010000    2.602000
H     -1.882000   -0.038000   -1.106000
H     -0.515000   -0.876000   -1.863000
H     -0.559000    0.879000   -1.850000
C      2.087600    4.313200    4.864900
C      1.037100    3.891900    5.680000
C      0.739400    4.709300    6.753100
C      1.509400    5.860300    6.913000
Br     2.574000    3.267900    3.372400
N      2.801100    5.420800    5.049900
N      2.506000    6.208600    6.093500
H      0.499300    2.979700    5.470900
H     -0.056900    4.470900    7.443700
H      1.335600    6.548100    7.728800
