22

O      1.224000    0.000000    0.000000
C      0.000000    0.000000    0.000000
N     -0.718000    0.000000    1.154000
H     -1.717000    0.061000    1.108000
C     -0.809000   -0.010000   -1.276000
C     -0.049000    0.046000    2.436000
H     -0.777000   -0.133000    3.221000
H      0.720000   -0.720000    2.476000
H      0.429000    1.010000    2.602000
H     -1.882000   -0.038000   -1.106000
H     -0.515000   -0.876000   -1.863000
H     -0.559000    0.879000   -1.850000
C      5.075600    0.419900    1.379600
C      3.939600    1.074600    1.855300
C      4.149700    2.319200    2.416800
C      5.460800    2.791600    2.451900
Br     4.897100   -1.285400    0.594400
N      6.313800    0.904200    1.430800
N      6.509300    2.112400    1.977200
H      2.962400    0.622200    1.781500
H      3.334600    2.906900    2.814200
H      5.703100    3.756300    2.875600
