22

O      1.224000    0.000000    0.000000
C      0.000000    0.000000    0.000000
N     -0.718000    0.000000    1.154000
H     -1.717000    0.061000    1.108000
C     -0.809000   -0.010000   -1.276000
C     -0.049000    0.046000    2.436000
H     -0.777000   -0.133000    3.221000
H      0.720000   -0.720000    2.476000
H      0.429000    1.010000    2.602000
H     -1.882000   -0.038000   -1.106000
H     -0.515000   -0.876000   -1.863000
H     -0.559000    0.879000   -1.850000
C     -1.650800    3.933500   -0.160200
C     -2.919500    4.480000    0.033100
C     -3.217000    5.598800   -0.720500
C     -2.231500    6.065100   -1.589200
Br    -1.145500    2.404100    0.820700
N     -0.734900    4.407900   -1.000600
N     -1.031400    5.493800   -1.728300
H     -3.615000    4.042800    0.733400
H     -4.173300    6.096300   -0.643700
H     -2.391300    6.935100   -2.210900
