22

O      1.224000    0.000000    0.000000
C      0.000000    0.000000    0.000000
N     -0.718000    0.000000    1.154000
H     -1.717000    0.061000    1.108000
C     -0.809000   -0.010000   -1.276000
C     -0.049000    0.046000    2.436000
H     -0.777000   -0.133000    3.221000
H      0.720000   -0.720000    2.476000
H      0.429000    1.010000    2.602000
H     -1.882000   -0.038000   -1.106000
H     -0.515000   -0.876000   -1.863000
H     -0.559000    0.879000   -1.850000
C      0.645000    4.961700    3.677500
C      0.716600    5.025300    5.069000
C      1.009000    6.265200    5.603400
C      1.201200    7.317300    4.709300
Br     0.251600    3.314400    2.848000
N      0.835100    5.990300    2.855300
N      1.118400    7.190000    3.381600
H      0.550800    4.149100    5.677300
H      1.086700    6.418900    6.670200
H      1.433100    8.316000    5.052700
