22

O      1.224000    0.000000    0.000000
C      0.000000    0.000000    0.000000
N     -0.718000    0.000000    1.154000
H     -1.717000    0.061000    1.108000
C     -0.809000   -0.010000   -1.276000
C     -0.049000    0.046000    2.436000
H     -0.777000   -0.133000    3.221000
H      0.720000   -0.720000    2.476000
H      0.429000    1.010000    2.602000
H     -1.882000   -0.038000   -1.106000
H     -0.515000   -0.876000   -1.863000
H     -0.559000    0.879000   -1.850000
C      5.406600   -0.366200    1.557600
C      6.542200    0.210700    0.989400
C      7.237900    1.093700    1.792400
C      6.741700    1.317600    3.075800
Br     4.385800   -1.585900    0.544200
N      4.963300   -0.127100    2.789000
N      5.643900    0.730800    3.561900
H      6.845500   -0.028900   -0.018400
H      8.131000    1.593100    1.445000
H      7.231900    1.994800    3.761300
