22

O      1.224000    0.000000    0.000000
C      0.000000    0.000000    0.000000
N     -0.718000    0.000000    1.154000
H     -1.717000    0.061000    1.108000
C     -0.809000   -0.010000   -1.276000
C     -0.049000    0.046000    2.436000
H     -0.777000   -0.133000    3.221000
H      0.720000   -0.720000    2.476000
H      0.429000    1.010000    2.602000
H     -1.882000   -0.038000   -1.106000
H     -0.515000   -0.876000   -1.863000
H     -0.559000    0.879000   -1.850000
C      2.114900    4.061300    1.601600
C      3.009500    4.633600    0.697400
C      2.936900    6.006400    0.561900
C      1.987900    6.675600    1.333300
Br     2.132500    2.193300    1.860300
N      1.221300    4.734500    2.321600
N      1.157100    6.066300    2.184500
H      3.710000    4.026100    0.144700
H      3.586800    6.544800   -0.113000
H      1.872200    7.749300    1.281400
