22

O      1.224000    0.000000    0.000000
C      0.000000    0.000000    0.000000
N     -0.718000    0.000000    1.154000
H     -1.717000    0.061000    1.108000
C     -0.809000   -0.010000   -1.276000
C     -0.049000    0.046000    2.436000
H     -0.777000   -0.133000    3.221000
H      0.720000   -0.720000    2.476000
H      0.429000    1.010000    2.602000
H     -1.882000   -0.038000   -1.106000
H     -0.515000   -0.876000   -1.863000
H     -0.559000    0.879000   -1.850000
C      5.956000   -2.261000   -4.156500
C      5.899000   -3.185600   -5.199300
C      6.925900   -3.121100   -6.121100
C      7.905600   -2.150000   -5.920000
Br     4.601300   -2.265200   -2.844500
N      6.909500   -1.346800   -3.997600
N      7.902400   -1.290800   -4.896400
H      5.094200   -3.901600   -5.267400
H      6.972800   -3.793800   -6.965600
H      8.739600   -2.038900   -6.598900
