22

O      1.224000    0.000000    0.000000
C      0.000000    0.000000    0.000000
N     -0.718000    0.000000    1.154000
H     -1.717000    0.061000    1.108000
C     -0.809000   -0.010000   -1.276000
C     -0.049000    0.046000    2.436000
H     -0.777000   -0.133000    3.221000
H      0.720000   -0.720000    2.476000
H      0.429000    1.010000    2.602000
H     -1.882000   -0.038000   -1.106000
H     -0.515000   -0.876000   -1.863000
H     -0.559000    0.879000   -1.850000
C      2.056900   -3.576200    3.121200
C      0.808600   -3.733500    3.723400
C      0.821500   -4.038200    5.070700
C      2.066000   -4.156800    5.687500
Br     2.149400   -3.158900    1.284400
N      3.226100   -3.697400    3.744400
N      3.230100   -3.993300    5.051700
H     -0.103000   -3.620600    3.156500
H     -0.093000   -4.180000    5.628700
H      2.156000   -4.393200    6.738600
