22

O      1.224000    0.000000    0.000000
C      0.000000    0.000000    0.000000
N     -0.718000    0.000000    1.154000
H     -1.717000    0.061000    1.108000
C     -0.809000   -0.010000   -1.276000
C     -0.049000    0.046000    2.436000
H     -0.777000   -0.133000    3.221000
H      0.720000   -0.720000    2.476000
H      0.429000    1.010000    2.602000
H     -1.882000   -0.038000   -1.106000
H     -0.515000   -0.876000   -1.863000
H     -0.559000    0.879000   -1.850000
C     -1.048100    3.874900   -3.985700
C     -2.300900    3.269000   -4.079700
C     -3.266400    3.980100   -4.765600
C     -2.897100    5.218000   -5.289600
Br     0.340200    2.986500   -3.069200
N     -0.732700    5.060600   -4.500100
N     -1.675100    5.744300   -5.164300
H     -2.488200    2.302300   -3.637400
H     -4.268700    3.597100   -4.893800
H     -3.598000    5.831600   -5.838300
