22

O      1.224000    0.000000    0.000000
C      0.000000    0.000000    0.000000
N     -0.718000    0.000000    1.154000
H     -1.717000    0.061000    1.108000
C     -0.809000   -0.010000   -1.276000
C     -0.049000    0.046000    2.436000
H     -0.777000   -0.133000    3.221000
H      0.720000   -0.720000    2.476000
H      0.429000    1.010000    2.602000
H     -1.882000   -0.038000   -1.106000
H     -0.515000   -0.876000   -1.863000
H     -0.559000    0.879000   -1.850000
C      2.740400    2.830800    3.191000
C      2.799100    3.836400    4.155800
C      2.056400    3.620200    5.300300
C      1.330500    2.432500    5.376500
Br     3.718700    3.028900    1.590900
N      2.034500    1.708400    3.299800
N      1.316500    1.506000    4.413500
H      3.394000    4.723900    4.001800
H      2.035400    4.339100    6.106800
H      0.726200    2.193500    6.240600
