22

O      1.224000    0.000000    0.000000
C      0.000000    0.000000    0.000000
N     -0.718000    0.000000    1.154000
H     -1.717000    0.061000    1.108000
C     -0.809000   -0.010000   -1.276000
C     -0.049000    0.046000    2.436000
H     -0.777000   -0.133000    3.221000
H      0.720000   -0.720000    2.476000
H      0.429000    1.010000    2.602000
H     -1.882000   -0.038000   -1.106000
H     -0.515000   -0.876000   -1.863000
H     -0.559000    0.879000   -1.850000
C      2.603400    0.280600    3.733000
C      1.251200    0.426100    4.042300
C      0.660900    1.606100    3.632800
C      1.465900    2.523400    2.959100
Br     3.503600   -1.294500    4.248100
N      3.340200    1.180500    3.087000
N      2.760100    2.322900    2.693000
H      0.712900   -0.346200    4.570400
H     -0.381900    1.814700    3.824300
H      1.074800    3.468300    2.608200
