22

O      1.224000    0.000000    0.000000
C      0.000000    0.000000    0.000000
N     -0.718000    0.000000    1.154000
H     -1.717000    0.061000    1.108000
C     -0.809000   -0.010000   -1.276000
C     -0.049000    0.046000    2.436000
H     -0.777000   -0.133000    3.221000
H      0.720000   -0.720000    2.476000
H      0.429000    1.010000    2.602000
H     -1.882000   -0.038000   -1.106000
H     -0.515000   -0.876000   -1.863000
H     -0.559000    0.879000   -1.850000
C     -1.580000   -4.145600    1.796400
C     -2.932200   -4.320100    2.090200
C     -3.326100   -5.612200    2.379800
C     -2.344500   -6.601600    2.349900
Br    -0.939800   -2.419500    1.387200
N     -0.670900   -5.116900    1.777800
N     -1.061100   -6.367800    2.059900
H     -3.616600   -3.485300    2.087200
H     -4.352000   -5.851700    2.620300
H     -2.576800   -7.635300    2.565400
