22

O      1.224000    0.000000    0.000000
C      0.000000    0.000000    0.000000
N     -0.718000    0.000000    1.154000
H     -1.717000    0.061000    1.108000
C     -0.809000   -0.010000   -1.276000
C     -0.049000    0.046000    2.436000
H     -0.777000   -0.133000    3.221000
H      0.720000   -0.720000    2.476000
H      0.429000    1.010000    2.602000
H     -1.882000   -0.038000   -1.106000
H     -0.515000   -0.876000   -1.863000
H     -0.559000    0.879000   -1.850000
C      4.044900    3.749800   -4.096000
C      2.753800    4.277400   -4.098800
C      2.579700    5.445600   -4.815300
C      3.698500    5.974900   -5.456800
Br     4.388700    2.156700   -3.147000
N      5.089900    4.284900   -4.721700
N      4.912800    5.418400   -5.414800
H      1.950200    3.789900   -3.567900
H      1.617600    5.933500   -4.879200
H      3.640000    6.885900   -6.036000
