22

O      1.224000    0.000000    0.000000
C      0.000000    0.000000    0.000000
N     -0.718000    0.000000    1.154000
H     -1.717000    0.061000    1.108000
C     -0.809000   -0.010000   -1.276000
C     -0.049000    0.046000    2.436000
H     -0.777000   -0.133000    3.221000
H      0.720000   -0.720000    2.476000
H      0.429000    1.010000    2.602000
H     -1.882000   -0.038000   -1.106000
H     -0.515000   -0.876000   -1.863000
H     -0.559000    0.879000   -1.850000
C      5.306800    0.095300   -1.195900
C      4.598600    0.855600   -2.126400
C      4.888500    2.206100   -2.149700
C      5.848700    2.669400   -1.251500
Br     4.985100   -1.759600   -1.083500
N      6.218000    0.574400   -0.353200
N      6.493600    1.885800   -0.382000
H      3.871200    0.400700   -2.781600
H      4.394000    2.880400   -2.834200
H      6.128200    3.713000   -1.211000
