22

O      1.224000    0.000000    0.000000
C      0.000000    0.000000    0.000000
N     -0.718000    0.000000    1.154000
H     -1.717000    0.061000    1.108000
C     -0.809000   -0.010000   -1.276000
C     -0.049000    0.046000    2.436000
H     -0.777000   -0.133000    3.221000
H      0.720000   -0.720000    2.476000
H      0.429000    1.010000    2.602000
H     -1.882000   -0.038000   -1.106000
H     -0.515000   -0.876000   -1.863000
H     -0.559000    0.879000   -1.850000
C      2.984200    2.564600   -1.784200
C      2.986900    1.200200   -2.073800
C      2.992300    0.866800   -3.414500
C      2.994400    1.914800   -4.333800
Br     2.976800    3.125700    0.016300
N      2.986400    3.537900   -2.691200
N      2.991600    3.206100   -3.989900
H      2.984900    0.462100   -1.286200
H      2.994800   -0.162800   -3.742700
H      2.998600    1.732100   -5.399400
