22

O      1.224000    0.000000    0.000000
C      0.000000    0.000000    0.000000
N     -0.718000    0.000000    1.154000
H     -1.717000    0.061000    1.108000
C     -0.809000   -0.010000   -1.276000
C     -0.049000    0.046000    2.436000
H     -0.777000   -0.133000    3.221000
H      0.720000   -0.720000    2.476000
H      0.429000    1.010000    2.602000
H     -1.882000   -0.038000   -1.106000
H     -0.515000   -0.876000   -1.863000
H     -0.559000    0.879000   -1.850000
C      4.053300   -1.675100   -2.156900
C      4.746400   -1.239700   -3.286200
C      5.426900   -2.213800   -3.990800
C      5.354100   -3.519800   -3.508700
Br     3.091500   -0.423400   -1.124900
N      4.007100   -2.933300   -1.727100
N      4.670000   -3.872700   -2.416300
H      4.741300   -0.200500   -3.578400
H      5.994100   -1.978500   -4.880000
H      5.860200   -4.335300   -4.006500
