22

O      1.224000    0.000000    0.000000
C      0.000000    0.000000    0.000000
N     -0.718000    0.000000    1.154000
H     -1.717000    0.061000    1.108000
C     -0.809000   -0.010000   -1.276000
C     -0.049000    0.046000    2.436000
H     -0.777000   -0.133000    3.221000
H      0.720000   -0.720000    2.476000
H      0.429000    1.010000    2.602000
H     -1.882000   -0.038000   -1.106000
H     -0.515000   -0.876000   -1.863000
H     -0.559000    0.879000   -1.850000
C      3.323000   -4.649100    2.331800
C      4.576200   -4.143800    2.677600
C      5.130300   -4.644600    3.839700
C      4.390700   -5.594000    4.543200
Br     2.479400   -4.030400    0.762700
N      2.646400   -5.557100    3.030300
N      3.190900   -6.038100    4.156800
H      5.069800   -3.406200    2.063200
H      6.097400   -4.317200    4.193700
H      4.758900   -6.031200    5.460900
