22

O      1.224000    0.000000    0.000000
C      0.000000    0.000000    0.000000
N     -0.718000    0.000000    1.154000
H     -1.717000    0.061000    1.108000
C     -0.809000   -0.010000   -1.276000
C     -0.049000    0.046000    2.436000
H     -0.777000   -0.133000    3.221000
H      0.720000   -0.720000    2.476000
H      0.429000    1.010000    2.602000
H     -1.882000   -0.038000   -1.106000
H     -0.515000   -0.876000   -1.863000
H     -0.559000    0.879000   -1.850000
C      2.288400    3.223200    2.329700
C      2.430400    3.924200    3.527200
C      1.376000    4.746000    3.875200
C      0.287600    4.792700    3.005300
Br     3.672100    2.073500    1.763800
N      1.232000    3.293800    1.524100
N      0.213000    4.093500    1.868900
H      3.317100    3.819500    4.133700
H      1.389000    5.331200    4.783600
H     -0.574100    5.412600    3.210400
