22

O      1.224000    0.000000    0.000000
C      0.000000    0.000000    0.000000
N     -0.718000    0.000000    1.154000
H     -1.717000    0.061000    1.108000
C     -0.809000   -0.010000   -1.276000
C     -0.049000    0.046000    2.436000
H     -0.777000   -0.133000    3.221000
H      0.720000   -0.720000    2.476000
H      0.429000    1.010000    2.602000
H     -1.882000   -0.038000   -1.106000
H     -0.515000   -0.876000   -1.863000
H     -0.559000    0.879000   -1.850000
C      1.900900    2.474900   -0.518100
C      3.191400    1.979000   -0.333500
C      3.590900    0.991000   -1.212500
C      2.675300    0.592400   -2.185200
Br     1.258700    3.826600    0.629600
N      1.054000    2.068300   -1.460200
N      1.449200    1.109300   -2.309200
H      3.827000    2.355500    0.453600
H      4.572000    0.542000   -1.153000
H      2.916100   -0.175000   -2.907700
