22

O      1.224000    0.000000    0.000000
C      0.000000    0.000000    0.000000
N     -0.718000    0.000000    1.154000
H     -1.717000    0.061000    1.108000
C     -0.809000   -0.010000   -1.276000
C     -0.049000    0.046000    2.436000
H     -0.777000   -0.133000    3.221000
H      0.720000   -0.720000    2.476000
H      0.429000    1.010000    2.602000
H     -1.882000   -0.038000   -1.106000
H     -0.515000   -0.876000   -1.863000
H     -0.559000    0.879000   -1.850000
C      4.541900   -3.719900   -4.448600
C      4.268100   -4.877200   -5.177300
C      5.366600   -5.559900   -5.662900
C      6.624700   -5.030600   -5.379700
Br     3.111500   -2.714400   -3.741800
N      5.759300   -3.245000   -4.198500
N      6.819900   -3.913200   -4.673100
H      3.253400   -5.205900   -5.342800
H      5.260600   -6.467800   -6.239300
H      7.530400   -5.508900   -5.725900
