22

O      1.224000    0.000000    0.000000
C      0.000000    0.000000    0.000000
N     -0.718000    0.000000    1.154000
H     -1.717000    0.061000    1.108000
C     -0.809000   -0.010000   -1.276000
C     -0.049000    0.046000    2.436000
H     -0.777000   -0.133000    3.221000
H      0.720000   -0.720000    2.476000
H      0.429000    1.010000    2.602000
H     -1.882000   -0.038000   -1.106000
H     -0.515000   -0.876000   -1.863000
H     -0.559000    0.879000   -1.850000
C      5.324300   -2.287500    0.389600
C      5.343700   -1.299000   -0.594200
C      6.532600   -1.154400   -1.282600
C      7.582600   -2.000900   -0.929800
Br     3.748400   -2.565600    1.387500
N      6.349100   -3.077700    0.698500
N      7.499300   -2.931200    0.025900
H      4.473500   -0.692100   -0.793200
H      6.649500   -0.416800   -2.063700
H      8.542800   -1.947000   -1.423800
