22

O      1.224000    0.000000    0.000000
C      0.000000    0.000000    0.000000
N     -0.718000    0.000000    1.154000
H     -1.717000    0.061000    1.108000
C     -0.809000   -0.010000   -1.276000
C     -0.049000    0.046000    2.436000
H     -0.777000   -0.133000    3.221000
H      0.720000   -0.720000    2.476000
H      0.429000    1.010000    2.602000
H     -1.882000   -0.038000   -1.106000
H     -0.515000   -0.876000   -1.863000
H     -0.559000    0.879000   -1.850000
C      3.505000    0.323800    2.521600
C      3.059800    1.300600    3.412200
C      4.004300    2.222800    3.819700
C      5.293300    2.087200    3.306400
Br     2.293600   -0.982900    1.904000
N      4.746300    0.226500    2.052800
N      5.656800    1.125200    2.453000
H      2.035800    1.320700    3.752800
H      3.759300    3.018900    4.508100
H      6.085300    2.770600    3.579100
