22

O      1.224000    0.000000    0.000000
C      0.000000    0.000000    0.000000
N     -0.718000    0.000000    1.154000
H     -1.717000    0.061000    1.108000
C     -0.809000   -0.010000   -1.276000
C     -0.049000    0.046000    2.436000
H     -0.777000   -0.133000    3.221000
H      0.720000   -0.720000    2.476000
H      0.429000    1.010000    2.602000
H     -1.882000   -0.038000   -1.106000
H     -0.515000   -0.876000   -1.863000
H     -0.559000    0.879000   -1.850000
C      3.669800   -1.393400   -1.108400
C      2.502200   -2.151400   -1.020500
C      2.372500   -3.171000   -1.943500
C      3.409200   -3.339200   -2.860200
Br     3.943900    0.023200    0.106000
N      4.639200   -1.584600   -1.999300
N      4.505800   -2.576100   -2.891500
H      1.754800   -1.940800   -0.270700
H      1.504900   -3.815000   -1.958700
H      3.378800   -4.115500   -3.612100
