22

O      1.224000    0.000000    0.000000
C      0.000000    0.000000    0.000000
N     -0.718000    0.000000    1.154000
H     -1.717000    0.061000    1.108000
C     -0.809000   -0.010000   -1.276000
C     -0.049000    0.046000    2.436000
H     -0.777000   -0.133000    3.221000
H      0.720000   -0.720000    2.476000
H      0.429000    1.010000    2.602000
H     -1.882000   -0.038000   -1.106000
H     -0.515000   -0.876000   -1.863000
H     -0.559000    0.879000   -1.850000
C      3.812600    1.957000   -1.284000
C      4.681100    1.905300   -0.193800
C      4.988600    0.642700    0.274800
C      4.407200   -0.441600   -0.380600
Br     3.329200    3.633300   -2.000100
N      3.276600    0.897500   -1.884200
N      3.579900   -0.324100   -1.423500
H      5.080100    2.807000    0.245500
H      5.652300    0.495800    1.114900
H      4.600600   -1.459300   -0.071100
