22

O      1.224000    0.000000    0.000000
C      0.000000    0.000000    0.000000
N     -0.718000    0.000000    1.154000
H     -1.717000    0.061000    1.108000
C     -0.809000   -0.010000   -1.276000
C     -0.049000    0.046000    2.436000
H     -0.777000   -0.133000    3.221000
H      0.720000   -0.720000    2.476000
H      0.429000    1.010000    2.602000
H     -1.882000   -0.038000   -1.106000
H     -0.515000   -0.876000   -1.863000
H     -0.559000    0.879000   -1.850000
C      0.925100   -2.832200    4.058200
C      2.102700   -2.713500    4.796100
C      2.031700   -3.114100    6.116300
C      0.804700   -3.591400    6.574500
Br     0.915700   -2.312200    2.245400
N     -0.229600   -3.293500    4.531500
N     -0.290200   -3.680100    5.813500
H      3.006500   -2.329900    4.347600
H      2.889400   -3.061700    6.771600
H      0.672300   -3.922900    7.595000
