22

O      1.224000    0.000000    0.000000
C      0.000000    0.000000    0.000000
N     -0.718000    0.000000    1.154000
H     -1.717000    0.061000    1.108000
C     -0.809000   -0.010000   -1.276000
C     -0.049000    0.046000    2.436000
H     -0.777000   -0.133000    3.221000
H      0.720000   -0.720000    2.476000
H      0.429000    1.010000    2.602000
H     -1.882000   -0.038000   -1.106000
H     -0.515000   -0.876000   -1.863000
H     -0.559000    0.879000   -1.850000
C      4.745400    4.023500   -1.877100
C      5.288000    4.454900   -3.087400
C      5.330800    5.822500   -3.277400
C      4.833400    6.626200   -2.252700
Br     4.641000    2.174800   -1.519300
N      4.279600    4.822800   -0.920900
N      4.324800    6.148700   -1.112900
H      5.648200    3.749500   -3.820800
H      5.732600    6.257000   -4.181600
H      4.833500    7.704700   -2.329200
