22

O      1.224000    0.000000    0.000000
C      0.000000    0.000000    0.000000
N     -0.718000    0.000000    1.154000
H     -1.717000    0.061000    1.108000
C     -0.809000   -0.010000   -1.276000
C     -0.049000    0.046000    2.436000
H     -0.777000   -0.133000    3.221000
H      0.720000   -0.720000    2.476000
H      0.429000    1.010000    2.602000
H     -1.882000   -0.038000   -1.106000
H     -0.515000   -0.876000   -1.863000
H     -0.559000    0.879000   -1.850000
C      3.393500    3.173700    2.420700
C      4.392400    4.029000    1.955900
C      4.160300    5.379800    2.129000
C      2.965000    5.749500    2.743700
Br     3.613100    1.310100    2.232300
N      2.263400    3.564900    3.003700
N      2.045700    4.877200    3.168000
H      5.286800    3.642600    1.491200
H      4.873000    6.123900    1.803000
H      2.713700    6.787300    2.913300
