22

O      1.224000    0.000000    0.000000
C      0.000000    0.000000    0.000000
N     -0.718000    0.000000    1.154000
H     -1.717000    0.061000    1.108000
C     -0.809000   -0.010000   -1.276000
C     -0.049000    0.046000    2.436000
H     -0.777000   -0.133000    3.221000
H      0.720000   -0.720000    2.476000
H      0.429000    1.010000    2.602000
H     -1.882000   -0.038000   -1.106000
H     -0.515000   -0.876000   -1.863000
H     -0.559000    0.879000   -1.850000
C      2.699600    3.680100    3.806200
C      2.814200    5.046700    4.060600
C      4.050100    5.477900    4.502300
C      5.048200    4.515700    4.648100
Br     1.053200    2.989300    3.199000
N      3.677300    2.790500    3.957500
N      4.873500    3.216900    4.386400
H      1.977800    5.713600    3.916100
H      4.240800    6.517500    4.727100
H      6.040300    4.777200    4.989100
