22

O      1.224000    0.000000    0.000000
C      0.000000    0.000000    0.000000
N     -0.718000    0.000000    1.154000
H     -1.717000    0.061000    1.108000
C     -0.809000   -0.010000   -1.276000
C     -0.049000    0.046000    2.436000
H     -0.777000   -0.133000    3.221000
H      0.720000   -0.720000    2.476000
H      0.429000    1.010000    2.602000
H     -1.882000   -0.038000   -1.106000
H     -0.515000   -0.876000   -1.863000
H     -0.559000    0.879000   -1.850000
C      4.743500   -3.721100   -0.403000
C      5.934100   -4.323300   -0.809300
C      5.912700   -5.701300   -0.904900
C      4.717300   -6.345400   -0.589600
Br     4.667400   -1.843700   -0.240700
N      3.620100   -4.370900   -0.110000
N      3.607500   -5.707900   -0.205300
H      6.810500   -3.733700   -1.031700
H      6.784200   -6.262000   -1.211200
H      4.624100   -7.421300   -0.641100
