22

O      1.224000    0.000000    0.000000
C      0.000000    0.000000    0.000000
N     -0.718000    0.000000    1.154000
H     -1.717000    0.061000    1.108000
C     -0.809000   -0.010000   -1.276000
C     -0.049000    0.046000    2.436000
H     -0.777000   -0.133000    3.221000
H      0.720000   -0.720000    2.476000
H      0.429000    1.010000    2.602000
H     -1.882000   -0.038000   -1.106000
H     -0.515000   -0.876000   -1.863000
H     -0.559000    0.879000   -1.850000
C      1.725200    3.399200    1.128300
C      2.569300    3.845600    2.145000
C      3.914900    3.585000    1.971600
C      4.291000    2.909800    0.811500
Br    -0.130400    3.705000    1.268700
N      2.122300    2.756500    0.033200
N      3.429500    2.507500   -0.127600
H      2.178700    4.362000    3.008700
H      4.650200    3.890000    2.702400
H      5.325200    2.670600    0.606500
