22

O      1.224000    0.000000    0.000000
C      0.000000    0.000000    0.000000
N     -0.718000    0.000000    1.154000
H     -1.717000    0.061000    1.108000
C     -0.809000   -0.010000   -1.276000
C     -0.049000    0.046000    2.436000
H     -0.777000   -0.133000    3.221000
H      0.720000   -0.720000    2.476000
H      0.429000    1.010000    2.602000
H     -1.882000   -0.038000   -1.106000
H     -0.515000   -0.876000   -1.863000
H     -0.559000    0.879000   -1.850000
C      1.374700   -0.283200   -4.180000
C      1.176500   -0.937300   -5.395900
C      1.340800   -2.308800   -5.378400
C      1.684100   -2.896000   -4.161600
Br     1.174600    1.590200   -4.096600
N      1.702500   -0.879400   -3.036700
N      1.860000   -2.210500   -3.028000
H      0.911200   -0.389900   -6.287700
H      1.209600   -2.907000   -6.268700
H      1.829500   -3.963400   -4.069900
