22

O      1.224000    0.000000    0.000000
C      0.000000    0.000000    0.000000
N     -0.718000    0.000000    1.154000
H     -1.717000    0.061000    1.108000
C     -0.809000   -0.010000   -1.276000
C     -0.049000    0.046000    2.436000
H     -0.777000   -0.133000    3.221000
H      0.720000   -0.720000    2.476000
H      0.429000    1.010000    2.602000
H     -1.882000   -0.038000   -1.106000
H     -0.515000   -0.876000   -1.863000
H     -0.559000    0.879000   -1.850000
C      0.576900   -4.302000   -3.872000
C     -0.122000   -5.040500   -4.826800
C      0.644600   -5.641200   -5.806500
C      2.024400   -5.451900   -5.744300
Br    -0.376900   -3.441800   -2.491100
N      1.897600   -4.143700   -3.845600
N      2.634400   -4.729800   -4.799700
H     -1.197200   -5.127500   -4.788200
H      0.198200   -6.234800   -6.591400
H      2.688900   -5.890600   -6.475700
