22

O      1.224000    0.000000    0.000000
C      0.000000    0.000000    0.000000
N     -0.718000    0.000000    1.154000
H     -1.717000    0.061000    1.108000
C     -0.809000   -0.010000   -1.276000
C     -0.049000    0.046000    2.436000
H     -0.777000   -0.133000    3.221000
H      0.720000   -0.720000    2.476000
H      0.429000    1.010000    2.602000
H     -1.882000   -0.038000   -1.106000
H     -0.515000   -0.876000   -1.863000
H     -0.559000    0.879000   -1.850000
C      4.817800   -0.351800   -3.524100
C      6.096200   -0.838100   -3.251000
C      7.117900    0.090800   -3.292300
C      6.773800    1.406400   -3.599200
Br     3.352800   -1.539000   -3.493400
N      4.527900    0.914000   -3.813600
N      5.524800    1.809200   -3.851700
H      6.260300   -1.880300   -3.023000
H      8.143900   -0.185700   -3.095600
H      7.518500    2.188500   -3.649900
