22

O      1.224000    0.000000    0.000000
C      0.000000    0.000000    0.000000
N     -0.718000    0.000000    1.154000
H     -1.717000    0.061000    1.108000
C     -0.809000   -0.010000   -1.276000
C     -0.049000    0.046000    2.436000
H     -0.777000   -0.133000    3.221000
H      0.720000   -0.720000    2.476000
H      0.429000    1.010000    2.602000
H     -1.882000   -0.038000   -1.106000
H     -0.515000   -0.876000   -1.863000
H     -0.559000    0.879000   -1.850000
C      2.752400   -3.244300   -4.540200
C      2.249300   -3.964000   -3.456500
C      2.265800   -5.339400   -3.584100
C      2.777600   -5.865300   -4.769400
Br     2.774600   -1.360000   -4.466200
N      3.233600   -3.783000   -5.657400
N      3.246200   -5.118300   -5.773600
H      1.873400   -3.461200   -2.578400
H      1.898200   -5.986100   -2.800300
H      2.823100   -6.931700   -4.941700
