22

O      1.224000    0.000000    0.000000
C      0.000000    0.000000    0.000000
N     -0.718000    0.000000    1.154000
H     -1.717000    0.061000    1.108000
C     -0.809000   -0.010000   -1.276000
C     -0.049000    0.046000    2.436000
H     -0.777000   -0.133000    3.221000
H      0.720000   -0.720000    2.476000
H      0.429000    1.010000    2.602000
H     -1.882000   -0.038000   -1.106000
H     -0.515000   -0.876000   -1.863000
H     -0.559000    0.879000   -1.850000
C      1.146500    3.658500    3.610800
C      1.974500    4.266500    2.667300
C      2.062400    5.643300    2.738000
C      1.323600    6.280800    3.733500
Br     0.957400    1.782100    3.599900
N      0.455500    4.302000    4.548000
N      0.546200    5.637900    4.610000
H      2.507500    3.681900    1.932800
H      2.677400    6.208100    2.052000
H      1.342000    7.355400    3.850900
