22

O      1.224000    0.000000    0.000000
C      0.000000    0.000000    0.000000
N     -0.718000    0.000000    1.154000
H     -1.717000    0.061000    1.108000
C     -0.809000   -0.010000   -1.276000
C     -0.049000    0.046000    2.436000
H     -0.777000   -0.133000    3.221000
H      0.720000   -0.720000    2.476000
H      0.429000    1.010000    2.602000
H     -1.882000   -0.038000   -1.106000
H     -0.515000   -0.876000   -1.863000
H     -0.559000    0.879000   -1.850000
C     -1.212700    3.862100    1.971000
C     -2.204600    4.755000    1.565700
C     -2.736400    5.558100    2.556000
C     -2.234700    5.398200    3.846800
Br    -0.421500    2.720500    0.695300
N     -0.758900    3.738100    3.215500
N     -1.280000    4.521000    4.170600
H     -2.526000    4.803100    0.536400
H     -3.509900    6.282300    2.344300
H     -2.601600    5.990600    4.673500
