22

O      1.224000    0.000000    0.000000
C      0.000000    0.000000    0.000000
N     -0.718000    0.000000    1.154000
H     -1.717000    0.061000    1.108000
C     -0.809000   -0.010000   -1.276000
C     -0.049000    0.046000    2.436000
H     -0.777000   -0.133000    3.221000
H      0.720000   -0.720000    2.476000
H      0.429000    1.010000    2.602000
H     -1.882000   -0.038000   -1.106000
H     -0.515000   -0.876000   -1.863000
H     -0.559000    0.879000   -1.850000
C      4.734400    0.732900    4.838900
C      3.704900    0.057100    5.493800
C      4.085700   -0.745800    6.551500
C      5.445000   -0.800400    6.855600
Br     4.320500    1.855300    3.381000
N      6.023400    0.655500    5.159000
N      6.384800   -0.125800    6.186500
H      2.677600    0.166000    5.180500
H      3.363400   -1.310800    7.123200
H      5.818600   -1.406600    7.669100
