22

O      1.224000    0.000000    0.000000
C      0.000000    0.000000    0.000000
N     -0.718000    0.000000    1.154000
H     -1.717000    0.061000    1.108000
C     -0.809000   -0.010000   -1.276000
C     -0.049000    0.046000    2.436000
H     -0.777000   -0.133000    3.221000
H      0.720000   -0.720000    2.476000
H      0.429000    1.010000    2.602000
H     -1.882000   -0.038000   -1.106000
H     -0.515000   -0.876000   -1.863000
H     -0.559000    0.879000   -1.850000
C     -1.031600   -3.590600   -4.215800
C     -2.037400   -4.098500   -3.393700
C     -3.227000   -4.416600   -4.019900
C     -3.303200   -4.200900   -5.395000
Br     0.631700   -3.124900   -3.458800
N     -1.141900   -3.398400   -5.527700
N     -2.299400   -3.709600   -6.127800
H     -1.879600   -4.229000   -2.333900
H     -4.067500   -4.816600   -3.470900
H     -4.201000   -4.425800   -5.953800
