22

O      1.224000    0.000000    0.000000
C      0.000000    0.000000    0.000000
N     -0.718000    0.000000    1.154000
H     -1.717000    0.061000    1.108000
C     -0.809000   -0.010000   -1.276000
C     -0.049000    0.046000    2.436000
H     -0.777000   -0.133000    3.221000
H      0.720000   -0.720000    2.476000
H      0.429000    1.010000    2.602000
H     -1.882000   -0.038000   -1.106000
H     -0.515000   -0.876000   -1.863000
H     -0.559000    0.879000   -1.850000
C      2.360600    0.059900   -2.911100
C      3.664500    0.262700   -2.459200
C      4.181400    1.529000   -2.653200
C      3.358300    2.467300   -3.274000
Br     1.561800   -1.634600   -2.693900
N      1.604500    0.982300   -3.500500
N      2.113300    2.208600   -3.685000
H      4.222300   -0.532400   -1.988300
H      5.182500    1.787200   -2.338400
H      3.693300    3.478400   -3.459700
