22

O      1.224000    0.000000    0.000000
C      0.000000    0.000000    0.000000
N     -0.718000    0.000000    1.154000
H     -1.717000    0.061000    1.108000
C     -0.809000   -0.010000   -1.276000
C     -0.049000    0.046000    2.436000
H     -0.777000   -0.133000    3.221000
H      0.720000   -0.720000    2.476000
H      0.429000    1.010000    2.602000
H     -1.882000   -0.038000   -1.106000
H     -0.515000   -0.876000   -1.863000
H     -0.559000    0.879000   -1.850000
C      3.094200    0.130700    3.297500
C      1.925900    0.089900    4.058300
C      1.425100   -1.168600    4.330000
C      2.128900   -2.259900    3.822900
Br     3.859800    1.800600    2.871000
N      3.738900   -0.935200    2.830200
N      3.246500   -2.152800    3.098200
H      1.453900    0.996300    4.405900
H      0.524800   -1.307200    4.911500
H      1.798400   -3.275000    3.994200
