22

O      1.224000    0.000000    0.000000
C      0.000000    0.000000    0.000000
N     -0.718000    0.000000    1.154000
H     -1.717000    0.061000    1.108000
C     -0.809000   -0.010000   -1.276000
C     -0.049000    0.046000    2.436000
H     -0.777000   -0.133000    3.221000
H      0.720000   -0.720000    2.476000
H      0.429000    1.010000    2.602000
H     -1.882000   -0.038000   -1.106000
H     -0.515000   -0.876000   -1.863000
H     -0.559000    0.879000   -1.850000
C      2.873500    4.812300    0.860400
C      3.238200    5.914400    1.633800
C      2.235500    6.470600    2.404200
C      0.973700    5.882300    2.333000
Br     4.169200    3.979100   -0.227500
N      1.655900    4.277900    0.818700
N      0.688400    4.823500    1.569200
H      4.247400    6.297100    1.619700
H      2.416400    7.327000    3.037900
H      0.139600    6.261900    2.906700
