22

O      1.224000    0.000000    0.000000
C      0.000000    0.000000    0.000000
N     -0.718000    0.000000    1.154000
H     -1.717000    0.061000    1.108000
C     -0.809000   -0.010000   -1.276000
C     -0.049000    0.046000    2.436000
H     -0.777000   -0.133000    3.221000
H      0.720000   -0.720000    2.476000
H      0.429000    1.010000    2.602000
H     -1.882000   -0.038000   -1.106000
H     -0.515000   -0.876000   -1.863000
H     -0.559000    0.879000   -1.850000
C     -0.133800   -3.582800    0.830500
C     -1.135700   -4.433500    0.363600
C     -1.143200   -4.668800   -0.997600
C     -0.160400   -4.040000   -1.760500
Br    -0.035900   -3.196600    2.673800
N      0.789000   -2.999900    0.069600
N      0.774900   -3.233300   -1.250200
H     -1.854100   -4.873400    1.038600
H     -1.878700   -5.313200   -1.457600
H     -0.102600   -4.176100   -2.831500
