22

O      1.224000    0.000000    0.000000
C      0.000000    0.000000    0.000000
N     -0.718000    0.000000    1.154000
H     -1.717000    0.061000    1.108000
C     -0.809000   -0.010000   -1.276000
C     -0.049000    0.046000    2.436000
H     -0.777000   -0.133000    3.221000
H      0.720000   -0.720000    2.476000
H      0.429000    1.010000    2.602000
H     -1.882000   -0.038000   -1.106000
H     -0.515000   -0.876000   -1.863000
H     -0.559000    0.879000   -1.850000
C      2.624100    2.197300    2.957900
C      2.498800    2.821100    4.199100
C      2.616700    4.197500    4.198600
C      2.846600    4.819000    2.972100
Br     2.479000    0.320100    2.849600
N      2.843800    2.825800    1.806000
N      2.957100    4.161400    1.814000
H      2.320500    2.248200    5.096400
H      2.535000    4.773900    5.109000
H      2.949900    5.892200    2.892600
