22

O      1.224000    0.000000    0.000000
C      0.000000    0.000000    0.000000
N     -0.718000    0.000000    1.154000
H     -1.717000    0.061000    1.108000
C     -0.809000   -0.010000   -1.276000
C     -0.049000    0.046000    2.436000
H     -0.777000   -0.133000    3.221000
H      0.720000   -0.720000    2.476000
H      0.429000    1.010000    2.602000
H     -1.882000   -0.038000   -1.106000
H     -0.515000   -0.876000   -1.863000
H     -0.559000    0.879000   -1.850000
C      3.832900    1.368200   -0.629100
C      3.721400    2.757200   -0.569800
C      2.573300    3.295500   -1.118100
C      1.651200    2.407400   -1.669800
Br     5.362800    0.533600    0.091700
N      2.929500    0.551700   -1.165100
N      1.818300    1.081800   -1.695100
H      4.494600    3.360800   -0.119100
H      2.392400    4.360900   -1.121900
H      0.730000    2.754200   -2.117000
