22

O      1.224000    0.000000    0.000000
C      0.000000    0.000000    0.000000
N     -0.718000    0.000000    1.154000
H     -1.717000    0.061000    1.108000
C     -0.809000   -0.010000   -1.276000
C     -0.049000    0.046000    2.436000
H     -0.777000   -0.133000    3.221000
H      0.720000   -0.720000    2.476000
H      0.429000    1.010000    2.602000
H     -1.882000   -0.038000   -1.106000
H     -0.515000   -0.876000   -1.863000
H     -0.559000    0.879000   -1.850000
C      1.460100   -4.911600    0.179600
C      1.284100   -4.482700   -1.135900
C      1.007300   -5.469900   -2.061700
C      0.932300   -6.781300   -1.594800
Br     1.842100   -3.642100    1.520900
N      1.380700   -6.175400    0.587900
N      1.111700   -7.127400   -0.316500
H      1.362700   -3.438500   -1.398000
H      0.854200   -5.240500   -3.106600
H      0.719600   -7.606900   -2.259600
