22

O      1.224000    0.000000    0.000000
C      0.000000    0.000000    0.000000
N     -0.718000    0.000000    1.154000
H     -1.717000    0.061000    1.108000
C     -0.809000   -0.010000   -1.276000
C     -0.049000    0.046000    2.436000
H     -0.777000   -0.133000    3.221000
H      0.720000   -0.720000    2.476000
H      0.429000    1.010000    2.602000
H     -1.882000   -0.038000   -1.106000
H     -0.515000   -0.876000   -1.863000
H     -0.559000    0.879000   -1.850000
C      2.920400   -2.727800    1.593200
C      2.553000   -3.729600    0.695000
C      2.667000   -5.026700    1.156500
C      3.132300   -5.203400    2.458600
Br     2.801800   -0.922400    1.061000
N      3.361200   -2.936000    2.831100
N      3.468900   -4.197400    3.271400
H      2.202800   -3.489000   -0.297300
H      2.407300   -5.873600    0.537500
H      3.247900   -6.188500    2.889000
