22

O      1.224000    0.000000    0.000000
C      0.000000    0.000000    0.000000
N     -0.718000    0.000000    1.154000
H     -1.717000    0.061000    1.108000
C     -0.809000   -0.010000   -1.276000
C     -0.049000    0.046000    2.436000
H     -0.777000   -0.133000    3.221000
H      0.720000   -0.720000    2.476000
H      0.429000    1.010000    2.602000
H     -1.882000   -0.038000   -1.106000
H     -0.515000   -0.876000   -1.863000
H     -0.559000    0.879000   -1.850000
C      5.616300    0.169200   -1.584100
C      5.184700   -1.042600   -2.123200
C      5.626000   -2.182200   -1.478900
C      6.449100   -2.009800   -0.367100
Br     5.069800    1.784400   -2.389800
N      6.403600    0.294000   -0.518900
N      6.827600   -0.816500    0.100600
H      4.544700   -1.070900   -2.991900
H      5.347600   -3.169500   -1.818800
H      6.833500   -2.854100    0.188200
