22

O      1.224000    0.000000    0.000000
C      0.000000    0.000000    0.000000
N     -0.718000    0.000000    1.154000
H     -1.717000    0.061000    1.108000
C     -0.809000   -0.010000   -1.276000
C     -0.049000    0.046000    2.436000
H     -0.777000   -0.133000    3.221000
H      0.720000   -0.720000    2.476000
H      0.429000    1.010000    2.602000
H     -1.882000   -0.038000   -1.106000
H     -0.515000   -0.876000   -1.863000
H     -0.559000    0.879000   -1.850000
C      0.495700   -3.433500   -2.826900
C      1.583900   -4.305900   -2.822600
C      1.475000   -5.412400   -3.642500
C      0.302100   -5.545500   -4.384100
Br     0.544400   -1.891900   -1.741700
N     -0.609400   -3.594600   -3.550100
N     -0.707400   -4.670800   -4.343100
H      2.451400   -4.113500   -2.209700
H      2.263900   -6.147800   -3.710100
H      0.144700   -6.384700   -5.047300
