22

O      1.224000    0.000000    0.000000
C      0.000000    0.000000    0.000000
N     -0.718000    0.000000    1.154000
H     -1.717000    0.061000    1.108000
C     -0.809000   -0.010000   -1.276000
C     -0.049000    0.046000    2.436000
H     -0.777000   -0.133000    3.221000
H      0.720000   -0.720000    2.476000
H      0.429000    1.010000    2.602000
H     -1.882000   -0.038000   -1.106000
H     -0.515000   -0.876000   -1.863000
H     -0.559000    0.879000   -1.850000
C      6.179700   -1.231900   -0.094300
C      5.490700   -2.351000   -0.561800
C      5.627800   -3.502500    0.189000
C      6.431600   -3.432500    1.325800
Br     6.058700    0.390900   -1.047400
N      6.939100   -1.203800    0.997800
N      7.067000   -2.325200    1.720800
H      4.890800   -2.303300   -1.457900
H      5.134200   -4.422700   -0.089000
H      6.586300   -4.292400    1.962700
