22

O      1.224000    0.000000    0.000000
C      0.000000    0.000000    0.000000
N     -0.718000    0.000000    1.154000
H     -1.717000    0.061000    1.108000
C     -0.809000   -0.010000   -1.276000
C     -0.049000    0.046000    2.436000
H     -0.777000   -0.133000    3.221000
H      0.720000   -0.720000    2.476000
H      0.429000    1.010000    2.602000
H     -1.882000   -0.038000   -1.106000
H     -0.515000   -0.876000   -1.863000
H     -0.559000    0.879000   -1.850000
C      2.004800    3.441600    2.356200
C      3.172500    3.089100    3.032600
C      3.010400    2.266300    4.130400
C      1.711100    1.874600    4.449400
Br     2.117000    4.561900    0.843300
N      0.779200    3.047000    2.691600
N      0.630300    2.248700    3.758000
H      4.137000    3.446200    2.704900
H      3.853000    1.936700    4.721300
H      1.505500    1.231800    5.294000
