22

O      1.224000    0.000000    0.000000
C      0.000000    0.000000    0.000000
N     -0.718000    0.000000    1.154000
H     -1.717000    0.061000    1.108000
C     -0.809000   -0.010000   -1.276000
C     -0.049000    0.046000    2.436000
H     -0.777000   -0.133000    3.221000
H      0.720000   -0.720000    2.476000
H      0.429000    1.010000    2.602000
H     -1.882000   -0.038000   -1.106000
H     -0.515000   -0.876000   -1.863000
H     -0.559000    0.879000   -1.850000
C      0.022200   -3.786200    1.037100
C     -0.736900   -4.948600    1.170500
C     -1.620700   -4.975000    2.231900
C     -1.665500   -3.850600    3.054600
Br     1.259000   -3.649200   -0.380000
N     -0.048700   -2.731000    1.844300
N     -0.908700   -2.764400    2.871900
H     -0.628300   -5.769100    0.477500
H     -2.253900   -5.830000    2.421400
H     -2.331800   -3.797800    3.904400
