22

O      1.224000    0.000000    0.000000
C      0.000000    0.000000    0.000000
N     -0.718000    0.000000    1.154000
H     -1.717000    0.061000    1.108000
C     -0.809000   -0.010000   -1.276000
C     -0.049000    0.046000    2.436000
H     -0.777000   -0.133000    3.221000
H      0.720000   -0.720000    2.476000
H      0.429000    1.010000    2.602000
H     -1.882000   -0.038000   -1.106000
H     -0.515000   -0.876000   -1.863000
H     -0.559000    0.879000   -1.850000
C      5.172400    0.728900   -3.814000
C      6.100900    1.612600   -3.264100
C      7.023100    2.145400   -4.143900
C      6.935200    1.751500   -5.478200
Br     3.869900   -0.054100   -2.697300
N      5.119900    0.376400   -5.095800
N      6.018200    0.897700   -5.943100
H      6.086000    1.855000   -2.212300
H      7.783700    2.839600   -3.816500
H      7.621700    2.126100   -6.224800
