22

O      1.224000    0.000000    0.000000
C      0.000000    0.000000    0.000000
N     -0.718000    0.000000    1.154000
H     -1.717000    0.061000    1.108000
C     -0.809000   -0.010000   -1.276000
C     -0.049000    0.046000    2.436000
H     -0.777000   -0.133000    3.221000
H      0.720000   -0.720000    2.476000
H      0.429000    1.010000    2.602000
H     -1.882000   -0.038000   -1.106000
H     -0.515000   -0.876000   -1.863000
H     -0.559000    0.879000   -1.850000
C      1.304100    3.515700    2.774500
C      0.125200    4.136000    3.187800
C      0.134300    5.517400    3.180800
C      1.307100    6.146800    2.766200
Br     1.395400    1.632200    2.747600
N      2.405700    4.151800    2.384900
N      2.406600    5.492200    2.380900
H     -0.733600    3.557000    3.491800
H     -0.729600    6.091700    3.483400
H      1.389600    7.224300    2.734100
