22

H     -1.712600    0.063700    1.111800
H     -1.879900   -0.053500   -1.105800
C      0.000000   -0.000000   -0.000000
O      1.225500   -0.000000   -0.000000
N     -0.713000    0.000000    1.154400
C     -0.806800   -0.008800   -1.275400
H     -0.500400   -0.864800   -1.870900
H     -0.569100    0.889100   -1.840600
C     -0.038900    0.050500    2.435000
H      0.760300   -0.685200    2.452100
H      0.401600    1.029800    2.616000
H     -0.754300   -0.173300    3.220300
C     -3.279400    0.314000    0.179900
C     -3.960000   -0.245800    1.261000
C     -5.335600   -0.121400    1.239400
C     -5.900400    0.543400    0.152000
Br    -1.398200    0.198400    0.113700
N     -3.854600    0.942400   -0.842000
N     -5.189800    1.059000   -0.855600
H     -3.428700   -0.742900    2.058400
H     -5.953600   -0.521300    2.030500
H     -6.969400    0.679700    0.065600
