22

O      1.225500   -0.000000   -0.000000
H     -1.712600    0.063700    1.111800
C      0.000000   -0.000000   -0.000000
N     -0.713000    0.000000    1.154400
C     -0.806800   -0.008800   -1.275400
C     -0.038900    0.050500    2.435000
H     -0.500400   -0.864800   -1.870900
H     -0.569100    0.889100   -1.840600
H     -1.879900   -0.053500   -1.105800
H      0.760300   -0.685200    2.452100
H     -0.754300   -0.173300    3.220300
H      0.401600    1.029800    2.616000
C     -2.134000    3.264700    0.573400
C     -2.619900    3.526300    1.854400
C     -3.611300    4.484500    1.940900
C     -4.022800    5.087600    0.753400
Br    -0.778700    1.973100    0.346500
N     -2.552700    3.862400   -0.539000
N     -3.515000    4.791000   -0.446700
H     -2.233800    3.002800    2.715800
H     -4.053300    4.759100    2.888000
H     -4.793500    5.845800    0.741700
