22

H     -0.569100    0.889100   -1.840600
H     -1.879900   -0.053500   -1.105800
C     -0.806800   -0.008800   -1.275400
H     -0.500400   -0.864800   -1.870900
O      1.225500   -0.000000   -0.000000
C      0.000000   -0.000000   -0.000000
H     -1.712600    0.063700    1.111800
N     -0.713000    0.000000    1.154400
C     -0.038900    0.050500    2.435000
H      0.760300   -0.685200    2.452100
H      0.401600    1.029800    2.616000
H     -0.754300   -0.173300    3.220300
C     -3.407500    1.431200   -0.829200
C     -4.050700    2.238500    0.108800
C     -5.354200    2.587700   -0.186700
C     -5.890900    2.104300   -1.378900
Br    -1.625100    0.898000   -0.520200
N     -3.954000    0.988500   -1.958500
N     -5.219200    1.331800   -2.238000
H     -3.546100    2.562300    1.006500
H     -5.938600    3.210100    0.475900
H     -6.904000    2.335200   -1.677700
