22

H     -1.712600    0.063700    1.111800
N     -0.713000    0.000000    1.154400
O      1.225500   -0.000000   -0.000000
C      0.000000   -0.000000   -0.000000
C     -0.038900    0.050500    2.435000
H      0.760300   -0.685200    2.452100
H      0.401600    1.029800    2.616000
H     -0.754300   -0.173300    3.220300
C     -0.806800   -0.008800   -1.275400
H     -0.500400   -0.864800   -1.870900
H     -0.569100    0.889100   -1.840600
H     -1.879900   -0.053500   -1.105800
C     -3.065400    0.672400    1.846200
C     -3.685600   -0.373000    2.530100
C     -4.945200   -0.105200    3.030200
C     -5.465200    1.168400    2.804400
Br    -1.343200    0.409500    1.124100
N     -3.594800    1.877200    1.650400
N     -4.817300    2.129200    2.138800
H     -3.197100   -1.327800    2.652500
H     -5.508900   -0.848900    3.575100
H     -6.444200    1.451600    3.165200
