22

O      1.224000    0.000000    0.000000
C      0.000000    0.000000    0.000000
N     -0.718000    0.000000    1.154000
H     -1.717000    0.061000    1.108000
C     -0.809000   -0.010000   -1.276000
C     -0.049000    0.046000    2.436000
H     -0.777000   -0.133000    3.221000
H      0.720000   -0.720000    2.476000
H      0.429000    1.010000    2.602000
H     -1.882000   -0.038000   -1.106000
H     -0.515000   -0.876000   -1.863000
H     -0.559000    0.879000   -1.850000
C      4.889700   -0.093800    4.455000
C      5.854200   -1.018600    4.854700
C      5.939600   -1.254100    6.213300
C      5.063600   -0.552300    7.040000
Br     4.692000    0.299200    2.621100
N      4.069800    0.557700    5.275700
N      4.159000    0.323600    6.592500
H      6.487700   -1.511900    4.133200
H      6.654400   -1.952900    6.623800
H      5.071200   -0.683800    8.113100
