22

O      1.224000    0.000000    0.000000
C      0.000000    0.000000    0.000000
N     -0.718000    0.000000    1.154000
H     -1.717000    0.061000    1.108000
C     -0.809000   -0.010000   -1.276000
C     -0.049000    0.046000    2.436000
H     -0.777000   -0.133000    3.221000
H      0.720000   -0.720000    2.476000
H      0.429000    1.010000    2.602000
H     -1.882000   -0.038000   -1.106000
H     -0.515000   -0.876000   -1.863000
H     -0.559000    0.879000   -1.850000
C      0.633500   -4.734100   -0.628600
C      1.420600   -5.871200   -0.447600
C      1.619200   -6.653700   -1.568600
C      1.020200   -6.234100   -2.755400
Br     0.301500   -3.598200    0.839800
N      0.077400   -4.365500   -1.779700
N      0.274800   -5.130100   -2.862800
H      1.841800   -6.111000    0.516900
H      2.213700   -7.555400   -1.532600
H      1.130600   -6.794400   -3.673400
