22

O      1.224000    0.000000    0.000000
C      0.000000    0.000000    0.000000
N     -0.718000    0.000000    1.154000
H     -1.717000    0.061000    1.108000
C     -0.809000   -0.010000   -1.276000
C     -0.049000    0.046000    2.436000
H     -0.777000   -0.133000    3.221000
H      0.720000   -0.720000    2.476000
H      0.429000    1.010000    2.602000
H     -1.882000   -0.038000   -1.106000
H     -0.515000   -0.876000   -1.863000
H     -0.559000    0.879000   -1.850000
C      1.071500    4.887700   -1.326800
C      1.283000    6.209000   -0.933400
C      2.548700    6.712900   -1.162700
C      3.477900    5.860700   -1.757500
Br    -0.622900    4.104700   -1.057800
N      1.985400    4.103900   -1.892900
N      3.211100    4.600200   -2.112000
H      0.494600    6.789200   -0.478500
H      2.813200    7.725600   -0.893800
H      4.487900    6.183900   -1.967900
