22

O      1.224000    0.000000    0.000000
C      0.000000    0.000000    0.000000
N     -0.718000    0.000000    1.154000
H     -1.717000    0.061000    1.108000
C     -0.809000   -0.010000   -1.276000
C     -0.049000    0.046000    2.436000
H     -0.777000   -0.133000    3.221000
H      0.720000   -0.720000    2.476000
H      0.429000    1.010000    2.602000
H     -1.882000   -0.038000   -1.106000
H     -0.515000   -0.876000   -1.863000
H     -0.559000    0.879000   -1.850000
C      4.277800   -1.355000   -3.820700
C      5.351500   -1.859000   -4.554500
C      6.547000   -1.179900   -4.420800
C      6.561400   -0.071400   -3.575600
Br     2.600600   -2.210000   -3.933400
N      4.330300   -0.291900   -3.022500
N      5.494000    0.361600   -2.898100
H      5.238300   -2.728300   -5.184400
H      7.437800   -1.491000   -4.947500
H      7.459800    0.509900   -3.420600
