22

O      1.224000    0.000000    0.000000
C      0.000000    0.000000    0.000000
N     -0.718000    0.000000    1.154000
H     -1.717000    0.061000    1.108000
C     -0.809000   -0.010000   -1.276000
C     -0.049000    0.046000    2.436000
H     -0.777000   -0.133000    3.221000
H      0.720000   -0.720000    2.476000
H      0.429000    1.010000    2.602000
H     -1.882000   -0.038000   -1.106000
H     -0.515000   -0.876000   -1.863000
H     -0.559000    0.879000   -1.850000
C      3.603400   -0.788100    1.723000
C      2.961900   -2.025400    1.670200
C      3.776500   -3.134500    1.792200
C      5.142700   -2.909400    1.953900
Br     2.581100    0.788900    1.566200
N      4.913100   -0.612900    1.878900
N      5.696700   -1.694000    1.996400
H      1.892400   -2.094900    1.541400
H      3.376300   -4.137800    1.764000
H      5.842400   -3.727400    2.055900
