22

O      1.224000    0.000000    0.000000
C      0.000000    0.000000    0.000000
N     -0.718000    0.000000    1.154000
H     -1.717000    0.061000    1.108000
C     -0.809000   -0.010000   -1.276000
C     -0.049000    0.046000    2.436000
H     -0.777000   -0.133000    3.221000
H      0.720000   -0.720000    2.476000
H      0.429000    1.010000    2.602000
H     -1.882000   -0.038000   -1.106000
H     -0.515000   -0.876000   -1.863000
H     -0.559000    0.879000   -1.850000
C      4.136100   -0.933800   -1.612600
C      4.287700   -0.966600   -2.998800
C      4.680600    0.217400   -3.592100
C      4.884300    1.314400   -2.756400
Br     3.602500   -2.498700   -0.705400
N      4.340200    0.135000   -0.847100
N      4.721300    1.280100   -1.430500
H      4.104900   -1.870900   -3.559200
H      4.825700    0.295600   -4.660100
H      5.192400    2.274000   -3.147900
