22

O      1.224000    0.000000    0.000000
C      0.000000    0.000000    0.000000
N     -0.718000    0.000000    1.154000
H     -1.717000    0.061000    1.108000
C     -0.809000   -0.010000   -1.276000
C     -0.049000    0.046000    2.436000
H     -0.777000   -0.133000    3.221000
H      0.720000   -0.720000    2.476000
H      0.429000    1.010000    2.602000
H     -1.882000   -0.038000   -1.106000
H     -0.515000   -0.876000   -1.863000
H     -0.559000    0.879000   -1.850000
C     -0.471600   -1.422400   -4.195200
C      0.151300   -0.962700   -5.355400
C     -0.631200   -0.198900   -6.199600
C     -1.950100    0.033900   -5.812600
Br     0.509800   -2.474100   -2.975600
N     -1.735700   -1.178900   -3.859300
N     -2.488400   -0.436900   -4.683700
H      1.183300   -1.198600   -5.566100
H     -0.241900    0.204200   -7.123600
H     -2.622500    0.622300   -6.421400
