22

O      1.224000    0.000000    0.000000
C      0.000000    0.000000    0.000000
N     -0.718000    0.000000    1.154000
H     -1.717000    0.061000    1.108000
C     -0.809000   -0.010000   -1.276000
C     -0.049000    0.046000    2.436000
H     -0.777000   -0.133000    3.221000
H      0.720000   -0.720000    2.476000
H      0.429000    1.010000    2.602000
H     -1.882000   -0.038000   -1.106000
H     -0.515000   -0.876000   -1.863000
H     -0.559000    0.879000   -1.850000
C      4.599300   -0.594500   -3.999700
C      5.061800   -1.296100   -2.886400
C      5.558400   -2.561500   -3.132800
C      5.547900   -3.006300   -4.453900
Br     3.901300    1.142500   -3.771200
N      4.605700   -1.053500   -5.248400
N      5.089100   -2.282200   -5.479100
H      5.026900   -0.862000   -1.898700
H      5.940500   -3.185300   -2.337400
H      5.919900   -3.984800   -4.724000
