22

O      1.224000    0.000000    0.000000
C      0.000000    0.000000    0.000000
N     -0.718000    0.000000    1.154000
H     -1.717000    0.061000    1.108000
C     -0.809000   -0.010000   -1.276000
C     -0.049000    0.046000    2.436000
H     -0.777000   -0.133000    3.221000
H      0.720000   -0.720000    2.476000
H      0.429000    1.010000    2.602000
H     -1.882000   -0.038000   -1.106000
H     -0.515000   -0.876000   -1.863000
H     -0.559000    0.879000   -1.850000
C      5.110800   -4.895500   -1.293400
C      5.748500   -4.544200   -0.103700
C      6.886400   -5.263100    0.207500
C      7.279600   -6.256600   -0.687900
Br     3.548200   -3.974500   -1.809700
N      5.517200   -5.852000   -2.124100
N      6.622200   -6.545000   -1.815100
H      5.363100   -3.755600    0.524700
H      7.452400   -5.067400    1.107000
H      8.159100   -6.860300   -0.512100
