22

O      1.224000    0.000000    0.000000
C      0.000000    0.000000    0.000000
N     -0.718000    0.000000    1.154000
H     -1.717000    0.061000    1.108000
C     -0.809000   -0.010000   -1.276000
C     -0.049000    0.046000    2.436000
H     -0.777000   -0.133000    3.221000
H      0.720000   -0.720000    2.476000
H      0.429000    1.010000    2.602000
H     -1.882000   -0.038000   -1.106000
H     -0.515000   -0.876000   -1.863000
H     -0.559000    0.879000   -1.850000
C      1.538200   -4.114800   -1.299000
C      1.554600   -4.883500   -0.135300
C      1.412900   -6.246600   -0.309100
C      1.269400   -6.713000   -1.614900
Br     1.724300   -2.242500   -1.170900
N      1.398800   -4.597300   -2.531000
N      1.261900   -5.921000   -2.691300
H      1.671800   -4.425300    0.835000
H      1.412700   -6.928200    0.529500
H      1.153800   -7.766300   -1.829700
