22

O      1.224000    0.000000    0.000000
C      0.000000    0.000000    0.000000
N     -0.718000    0.000000    1.154000
H     -1.717000    0.061000    1.108000
C     -0.809000   -0.010000   -1.276000
C     -0.049000    0.046000    2.436000
H     -0.777000   -0.133000    3.221000
H      0.720000   -0.720000    2.476000
H      0.429000    1.010000    2.602000
H     -1.882000   -0.038000   -1.106000
H     -0.515000   -0.876000   -1.863000
H     -0.559000    0.879000   -1.850000
C      1.769300   -3.889900    0.494400
C      0.791500   -4.586900    1.204000
C      1.215300   -5.730300    1.853200
C      2.562300   -6.070000    1.735900
Br     1.293900   -2.314800   -0.427400
N      3.048100   -4.246200    0.405400
N      3.451400   -5.356900    1.038100
H     -0.230300   -4.240200    1.234100
H      0.534700   -6.340300    2.429800
H      2.967300   -6.950200    2.215600
