22

O      1.224000    0.000000    0.000000
C      0.000000    0.000000    0.000000
N     -0.718000    0.000000    1.154000
H     -1.717000    0.061000    1.108000
C     -0.809000   -0.010000   -1.276000
C     -0.049000    0.046000    2.436000
H     -0.777000   -0.133000    3.221000
H      0.720000   -0.720000    2.476000
H      0.429000    1.010000    2.602000
H     -1.882000   -0.038000   -1.106000
H     -0.515000   -0.876000   -1.863000
H     -0.559000    0.879000   -1.850000
C      2.140500   -2.506800    4.104700
C      2.767000   -3.748300    3.997900
C      2.660800   -4.575800    5.098900
C      1.946500   -4.093600    6.194600
Br     2.226100   -1.302200    2.656200
N      1.466100   -2.080800    5.169500
N      1.367600   -2.889700    6.233900
H      3.298800   -4.030200    3.101800
H      3.111300   -5.558000    5.115600
H      1.820700   -4.683600    7.091800
