22

H     -1.712600    0.063700    1.111800
H     -1.879900   -0.053500   -1.105800
N     -0.713000    0.000000    1.154400
O      1.225500   -0.000000   -0.000000
C      0.000000   -0.000000   -0.000000
C     -0.806800   -0.008800   -1.275400
H     -0.569100    0.889100   -1.840600
H     -0.500400   -0.864800   -1.870900
C     -0.038900    0.050500    2.435000
H      0.401600    1.029800    2.616000
H      0.760300   -0.685200    2.452100
H     -0.754300   -0.173300    3.220300
C     -4.693800   -0.011500   -0.031200
C     -5.376400   -1.155800    0.381300
C     -6.755300   -1.088100    0.331600
C     -7.321000    0.103100   -0.120400
Br    -2.808200   -0.000700   -0.001600
N     -5.270000    1.109400   -0.457300
N     -6.608500    1.167100   -0.502500
H     -4.844100   -2.033100    0.716200
H     -7.374900   -1.921700    0.629900
H     -8.392500    0.230700   -0.186800
