22

H     -1.712600    0.063700    1.111800
H     -1.879900   -0.053500   -1.105800
C      0.000000   -0.000000   -0.000000
O      1.225500   -0.000000   -0.000000
N     -0.713000    0.000000    1.154400
C     -0.806800   -0.008800   -1.275400
H     -0.569100    0.889100   -1.840600
H     -0.500400   -0.864800   -1.870900
C     -0.038900    0.050500    2.435000
H      0.401600    1.029800    2.616000
H      0.760300   -0.685200    2.452100
H     -0.754300   -0.173300    3.220300
C     -3.920200   -1.327600   -0.235700
C     -4.580000   -1.287100   -1.463900
C     -5.917800   -1.631100   -1.443100
C     -6.469000   -1.980300   -0.211300
Br    -2.091000   -0.875800   -0.155400
N     -4.481500   -1.666900    0.921900
N     -5.780000   -1.999300    0.933700
H     -4.061900   -1.002100   -2.366900
H     -6.517200   -1.631000   -2.342200
H     -7.508700   -2.261000   -0.116200
