22

H     -1.879900   -0.053500   -1.105800
C     -0.806800   -0.008800   -1.275400
H     -0.569100    0.889100   -1.840600
H     -0.500400   -0.864800   -1.870900
C      0.000000   -0.000000   -0.000000
O      1.225500   -0.000000   -0.000000
N     -0.713000    0.000000    1.154400
H     -1.712600    0.063700    1.111800
C     -0.038900    0.050500    2.435000
H     -0.754300   -0.173300    3.220300
H      0.760300   -0.685200    2.452100
H      0.401600    1.029800    2.616000
C     -4.513800    0.902400   -2.486200
C     -5.134300    2.142800   -2.338600
C     -6.393400    2.258900   -2.895000
C     -6.912700    1.138000   -3.541000
Br    -2.792200    0.639800   -1.762500
N     -5.042500   -0.146500   -3.111000
N     -6.264700   -0.025800   -3.648100
H     -4.646300    2.952900   -1.818200
H     -6.957300    3.178800   -2.834800
H     -7.891400    1.152900   -4.000300
