22

O      1.224000    0.000000    0.000000
C      0.000000    0.000000    0.000000
N     -0.718000    0.000000    1.154000
H     -1.717000    0.061000    1.108000
C     -0.809000   -0.010000   -1.276000
C     -0.049000    0.046000    2.436000
H     -0.777000   -0.133000    3.221000
H      0.720000   -0.720000    2.476000
H      0.429000    1.010000    2.602000
H     -1.882000   -0.038000   -1.106000
H     -0.515000   -0.876000   -1.863000
H     -0.559000    0.879000   -1.850000
C      5.296300    0.365900   -0.882600
C      5.381100   -0.793300   -1.653700
C      5.734300   -1.944800   -0.977200
C      5.968100   -1.835300    0.392700
Br     4.821200    1.992300   -1.710700
N      5.527400    0.431300    0.425900
N      5.869600   -0.690400    1.075000
H      5.179700   -0.774600   -2.714000
H      5.826900   -2.894600   -1.484400
H      6.248300   -2.692600    0.988900
