22

O      1.224000    0.000000    0.000000
C      0.000000    0.000000    0.000000
N     -0.718000    0.000000    1.154000
H     -1.717000    0.061000    1.108000
C     -0.809000   -0.010000   -1.276000
C     -0.049000    0.046000    2.436000
H     -0.777000   -0.133000    3.221000
H      0.720000   -0.720000    2.476000
H      0.429000    1.010000    2.602000
H     -1.882000   -0.038000   -1.106000
H     -0.515000   -0.876000   -1.863000
H     -0.559000    0.879000   -1.850000
C      5.312200    4.720600   -1.087900
C      5.533200    5.067600   -2.420600
C      6.549600    5.975000   -2.648500
C      7.245200    6.448200   -1.537000
Br     3.947100    3.488600   -0.669200
N      5.998700    5.194500   -0.051400
N      6.983300    6.074600   -0.280900
H      4.937000    4.643500   -3.214300
H      6.799400    6.308000   -3.645800
H      8.053000    7.159900   -1.636300
