22

O      1.224000    0.000000    0.000000
C      0.000000    0.000000    0.000000
N     -0.718000    0.000000    1.154000
H     -1.717000    0.061000    1.108000
C     -0.809000   -0.010000   -1.276000
C     -0.049000    0.046000    2.436000
H     -0.777000   -0.133000    3.221000
H      0.720000   -0.720000    2.476000
H      0.429000    1.010000    2.602000
H     -1.882000   -0.038000   -1.106000
H     -0.515000   -0.876000   -1.863000
H     -0.559000    0.879000   -1.850000
C      2.808200    0.861900   -4.692100
C      3.322400    1.573800   -3.608500
C      4.210600    2.586000   -3.916800
C      4.501300    2.792900   -5.264300
Br     1.587100   -0.540800   -4.379000
N      3.110300    1.089100   -5.967700
N      3.972900    2.073000   -6.258500
H      3.033400    1.335500   -2.596100
H      4.664400    3.195600   -3.148500
H      5.186800    3.566000   -5.582700
