22

O      1.224000    0.000000    0.000000
C      0.000000    0.000000    0.000000
N     -0.718000    0.000000    1.154000
H     -1.717000    0.061000    1.108000
C     -0.809000   -0.010000   -1.276000
C     -0.049000    0.046000    2.436000
H     -0.777000   -0.133000    3.221000
H      0.720000   -0.720000    2.476000
H      0.429000    1.010000    2.602000
H     -1.882000   -0.038000   -1.106000
H     -0.515000   -0.876000   -1.863000
H     -0.559000    0.879000   -1.850000
C      3.791800    1.092500   -3.868400
C      3.987500   -0.209500   -3.408100
C      3.969600   -1.200200   -4.370800
C      3.760200   -0.804900   -5.691100
Br     3.798400    2.518400   -2.634200
N      3.594600    1.431500   -5.139800
N      3.578500    0.464400   -6.067800
H      4.142300   -0.413700   -2.359500
H      4.111600   -2.240800   -4.116200
H      3.733200   -1.523000   -6.498800
