22

O      1.224000    0.000000    0.000000
C      0.000000    0.000000    0.000000
N     -0.718000    0.000000    1.154000
H     -1.717000    0.061000    1.108000
C     -0.809000   -0.010000   -1.276000
C     -0.049000    0.046000    2.436000
H     -0.777000   -0.133000    3.221000
H      0.720000   -0.720000    2.476000
H      0.429000    1.010000    2.602000
H     -1.882000   -0.038000   -1.106000
H     -0.515000   -0.876000   -1.863000
H     -0.559000    0.879000   -1.850000
C      4.518700    1.769300   -3.027600
C      3.674800    0.674100   -3.211500
C      4.264800   -0.464000   -3.726400
C      5.628900   -0.405400   -4.007900
Br     3.811500    3.372200   -2.329600
N      5.819000    1.787200   -3.308700
N      6.383900    0.678900   -3.808000
H      2.626200    0.728900   -2.961400
H      3.696700   -1.365600   -3.905800
H      6.159700   -1.255900   -4.412600
