22

O      1.224000    0.000000    0.000000
C      0.000000    0.000000    0.000000
N     -0.718000    0.000000    1.154000
H     -1.717000    0.061000    1.108000
C     -0.809000   -0.010000   -1.276000
C     -0.049000    0.046000    2.436000
H     -0.777000   -0.133000    3.221000
H      0.720000   -0.720000    2.476000
H      0.429000    1.010000    2.602000
H     -1.882000   -0.038000   -1.106000
H     -0.515000   -0.876000   -1.863000
H     -0.559000    0.879000   -1.850000
C     -1.676600    4.112600   -2.282600
C     -2.598200    5.045600   -2.757600
C     -2.232300    6.372200   -2.637000
C     -0.993000    6.643600   -2.059500
Br    -2.080200    2.274200   -2.400500
N     -0.500700    4.410700   -1.736200
N     -0.153000    5.700300   -1.622900
H     -3.536400    4.733100   -3.190500
H     -2.876800    7.171100   -2.975100
H     -0.638300    7.656900   -1.931700
