22

O      1.224000    0.000000    0.000000
C      0.000000    0.000000    0.000000
N     -0.718000    0.000000    1.154000
H     -1.717000    0.061000    1.108000
C     -0.809000   -0.010000   -1.276000
C     -0.049000    0.046000    2.436000
H     -0.777000   -0.133000    3.221000
H      0.720000   -0.720000    2.476000
H      0.429000    1.010000    2.602000
H     -1.882000   -0.038000   -1.106000
H     -0.515000   -0.876000   -1.863000
H     -0.559000    0.879000   -1.850000
C      3.957300    3.208100   -1.243400
C      3.393700    4.473200   -1.408800
C      3.235400    5.219700   -0.257300
C      3.649800    4.641400    0.941500
Br     4.216400    2.108600   -2.753600
N      4.341300    2.689300   -0.080000
N      4.184400    3.420000    1.032700
H      3.104100    4.832200   -2.384800
H      2.808300    6.212100   -0.279300
H      3.557700    5.164500    1.883200
