22

O      1.224000    0.000000    0.000000
C      0.000000    0.000000    0.000000
N     -0.718000    0.000000    1.154000
H     -1.717000    0.061000    1.108000
C     -0.809000   -0.010000   -1.276000
C     -0.049000    0.046000    2.436000
H     -0.777000   -0.133000    3.221000
H      0.720000   -0.720000    2.476000
H      0.429000    1.010000    2.602000
H     -1.882000   -0.038000   -1.106000
H     -0.515000   -0.876000   -1.863000
H     -0.559000    0.879000   -1.850000
C      3.696200    3.572000   -0.665900
C      2.887100    3.742200    0.457400
C      2.389300    5.015300    0.656600
C      2.740800    5.992000   -0.273900
Br     4.426400    1.871300   -1.028100
N      4.010200    4.530700   -1.533200
N      3.523100    5.763300   -1.333000
H      2.672600    2.918300    1.121100
H      1.752800    5.250100    1.497800
H      2.389800    7.010600   -0.184400
