22

O      1.224000    0.000000    0.000000
C      0.000000    0.000000    0.000000
N     -0.718000    0.000000    1.154000
H     -1.717000    0.061000    1.108000
C     -0.809000   -0.010000   -1.276000
C     -0.049000    0.046000    2.436000
H     -0.777000   -0.133000    3.221000
H      0.720000   -0.720000    2.476000
H      0.429000    1.010000    2.602000
H     -1.882000   -0.038000   -1.106000
H     -0.515000   -0.876000   -1.863000
H     -0.559000    0.879000   -1.850000
C      2.350600    2.609400   -2.037900
C      3.008600    3.141400   -3.146700
C      3.555900    4.398700   -2.979100
C      3.398200    5.003700   -1.733200
Br     1.568200    0.898000   -2.162500
N      2.220300    3.218500   -0.862300
N      2.754200    4.438300   -0.707700
H      3.077000    2.590900   -4.072700
H      4.085800    4.897500   -3.778000
H      3.798800    5.986500   -1.527000
