22

O      1.224000    0.000000    0.000000
C      0.000000    0.000000    0.000000
N     -0.718000    0.000000    1.154000
H     -1.717000    0.061000    1.108000
C     -0.809000   -0.010000   -1.276000
C     -0.049000    0.046000    2.436000
H     -0.777000   -0.133000    3.221000
H      0.720000   -0.720000    2.476000
H      0.429000    1.010000    2.602000
H     -1.882000   -0.038000   -1.106000
H     -0.515000   -0.876000   -1.863000
H     -0.559000    0.879000   -1.850000
C      5.022200    3.590900    1.469000
C      3.961500    4.010100    2.271900
C      4.260400    4.977300    3.211900
C      5.576800    5.432900    3.264100
Br     4.719600    2.273500    0.153900
N      6.268300    4.050200    1.548700
N      6.550200    4.988600    2.463400
H      2.972700    3.593800    2.153000
H      3.508100    5.368300    3.882000
H      5.886100    6.188300    3.973100
