22

O      1.224000    0.000000    0.000000
C      0.000000    0.000000    0.000000
N     -0.718000    0.000000    1.154000
H     -1.717000    0.061000    1.108000
C     -0.809000   -0.010000   -1.276000
C     -0.049000    0.046000    2.436000
H     -0.777000   -0.133000    3.221000
H      0.720000   -0.720000    2.476000
H      0.429000    1.010000    2.602000
H     -1.882000   -0.038000   -1.106000
H     -0.515000   -0.876000   -1.863000
H     -0.559000    0.879000   -1.850000
C      2.856400   -1.761700   -3.667700
C      2.974300   -2.234100   -4.974800
C      3.986000   -3.147800   -5.198400
C      4.779300   -3.502800   -4.108400
Br     1.506500   -0.510500   -3.256900
N      3.634400   -2.124900   -2.651300
N      4.613800   -3.011900   -2.876500
H      2.307100   -1.896000   -5.753000
H      4.159900   -3.573200   -6.176500
H      5.589900   -4.211500   -4.206000
