22

O      1.224000    0.000000    0.000000
C      0.000000    0.000000    0.000000
N     -0.718000    0.000000    1.154000
H     -1.717000    0.061000    1.108000
C     -0.809000   -0.010000   -1.276000
C     -0.049000    0.046000    2.436000
H     -0.777000   -0.133000    3.221000
H      0.720000   -0.720000    2.476000
H      0.429000    1.010000    2.602000
H     -1.882000   -0.038000   -1.106000
H     -0.515000   -0.876000   -1.863000
H     -0.559000    0.879000   -1.850000
C      0.460600   -4.210400    1.416400
C     -0.196100   -5.436200    1.309500
C      0.434000   -6.513300    1.902200
C      1.649300   -6.271000    2.540600
Br    -0.316100   -2.676700    0.641100
N      1.622500   -4.017900    2.035300
N      2.227500   -5.068000    2.607900
H     -1.139300   -5.521100    0.791600
H      0.006700   -7.505500    1.874900
H      2.200700   -7.063800    3.026700
