22

O      1.224000    0.000000    0.000000
C      0.000000    0.000000    0.000000
N     -0.718000    0.000000    1.154000
H     -1.717000    0.061000    1.108000
C     -0.809000   -0.010000   -1.276000
C     -0.049000    0.046000    2.436000
H     -0.777000   -0.133000    3.221000
H      0.720000   -0.720000    2.476000
H      0.429000    1.010000    2.602000
H     -1.882000   -0.038000   -1.106000
H     -0.515000   -0.876000   -1.863000
H     -0.559000    0.879000   -1.850000
C      3.142900   -1.323600   -2.499200
C      3.056900   -2.591500   -1.924300
C      3.206100   -2.644400   -0.552000
C      3.425200   -1.439600    0.114200
Br     2.952900   -1.142300   -4.366700
N      3.353500   -0.193900   -1.828800
N      3.497300   -0.253700   -0.497500
H      2.883700   -3.468400   -2.529500
H      3.155800   -3.579000   -0.011800
H      3.551300   -1.401600    1.187300
