22

O      1.224000    0.000000    0.000000
C      0.000000    0.000000    0.000000
N     -0.718000    0.000000    1.154000
H     -1.717000    0.061000    1.108000
C     -0.809000   -0.010000   -1.276000
C     -0.049000    0.046000    2.436000
H     -0.777000   -0.133000    3.221000
H      0.720000   -0.720000    2.476000
H      0.429000    1.010000    2.602000
H     -1.882000   -0.038000   -1.106000
H     -0.515000   -0.876000   -1.863000
H     -0.559000    0.879000   -1.850000
C      4.445000    2.605300   -1.956300
C      4.653700    3.876900   -1.422500
C      4.752900    4.907600   -2.336900
C      4.635900    4.578400   -3.686400
Br     4.295400    1.129000   -0.792400
N      4.338400    2.329700   -3.253500
N      4.435800    3.335400   -4.134400
H      4.730700    4.029300   -0.356600
H      4.914500    5.929400   -2.024200
H      4.702800    5.330900   -4.459900
