22

O      1.224000    0.000000    0.000000
C      0.000000    0.000000    0.000000
N     -0.718000    0.000000    1.154000
H     -1.717000    0.061000    1.108000
C     -0.809000   -0.010000   -1.276000
C     -0.049000    0.046000    2.436000
H     -0.777000   -0.133000    3.221000
H      0.720000   -0.720000    2.476000
H      0.429000    1.010000    2.602000
H     -1.882000   -0.038000   -1.106000
H     -0.515000   -0.876000   -1.863000
H     -0.559000    0.879000   -1.850000
C      1.771100   -3.721200    4.088800
C      3.108700   -3.608700    4.467500
C      3.748800   -4.791200    4.784400
C      3.003100   -5.965600    4.695200
Br     0.806200   -2.165400    3.636000
N      1.091600   -4.862700    4.015300
N      1.719800   -6.005700    4.324400
H      3.599400   -2.648000    4.505600
H      4.785300   -4.810800    5.089600
H      3.435400   -6.929000    4.927300
