22

O      1.224000    0.000000    0.000000
C      0.000000    0.000000    0.000000
N     -0.718000    0.000000    1.154000
H     -1.717000    0.061000    1.108000
C     -0.809000   -0.010000   -1.276000
C     -0.049000    0.046000    2.436000
H     -0.777000   -0.133000    3.221000
H      0.720000   -0.720000    2.476000
H      0.429000    1.010000    2.602000
H     -1.882000   -0.038000   -1.106000
H     -0.515000   -0.876000   -1.863000
H     -0.559000    0.879000   -1.850000
C      3.762100   -2.426200   -3.848600
C      3.269400   -3.730900   -3.825600
C      2.831000   -4.232900   -5.035700
C      2.923400   -3.395600   -6.146400
Br     4.385800   -1.647100   -2.248400
N      3.834500   -1.656200   -4.931100
N      3.407100   -2.150600   -6.101400
H      3.239500   -4.300500   -2.909200
H      2.431800   -5.233300   -5.123300
H      2.600200   -3.718400   -7.126300
