22

O      1.224000    0.000000    0.000000
C      0.000000    0.000000    0.000000
N     -0.718000    0.000000    1.154000
H     -1.717000    0.061000    1.108000
C     -0.809000   -0.010000   -1.276000
C     -0.049000    0.046000    2.436000
H     -0.777000   -0.133000    3.221000
H      0.720000   -0.720000    2.476000
H      0.429000    1.010000    2.602000
H     -1.882000   -0.038000   -1.106000
H     -0.515000   -0.876000   -1.863000
H     -0.559000    0.879000   -1.850000
C      1.754100    2.769400   -4.435700
C      1.781000    1.826900   -5.463500
C      1.955700    2.328100   -6.738900
C      2.086200    3.709800   -6.870500
Br     1.520400    2.188400   -2.656800
N      1.882300    4.083300   -4.600800
N      2.051500    4.561700   -5.841500
H      1.670500    0.773000   -5.257800
H      1.990500    1.680000   -7.603000
H      2.225700    4.175100   -7.836300
