22

O      1.224000    0.000000    0.000000
C      0.000000    0.000000    0.000000
N     -0.718000    0.000000    1.154000
H     -1.717000    0.061000    1.108000
C     -0.809000   -0.010000   -1.276000
C     -0.049000    0.046000    2.436000
H     -0.777000   -0.133000    3.221000
H      0.720000   -0.720000    2.476000
H      0.429000    1.010000    2.602000
H     -1.882000   -0.038000   -1.106000
H     -0.515000   -0.876000   -1.863000
H     -0.559000    0.879000   -1.850000
C      2.521300   -3.647300   -1.279500
C      1.762500   -3.933400   -2.414300
C      2.212800   -4.980800   -3.194400
C      3.367300   -5.640000   -2.775000
Br     1.991600   -2.235400   -0.147000
N      3.620200   -4.300500   -0.911000
N      4.050700   -5.315600   -1.673300
H      0.879200   -3.361200   -2.654200
H      1.695100   -5.281100   -4.094200
H      3.779900   -6.468700   -3.333500
