22

O      1.224000    0.000000    0.000000
C      0.000000    0.000000    0.000000
N     -0.718000    0.000000    1.154000
H     -1.717000    0.061000    1.108000
C     -0.809000   -0.010000   -1.276000
C     -0.049000    0.046000    2.436000
H     -0.777000   -0.133000    3.221000
H      0.720000   -0.720000    2.476000
H      0.429000    1.010000    2.602000
H     -1.882000   -0.038000   -1.106000
H     -0.515000   -0.876000   -1.863000
H     -0.559000    0.879000   -1.850000
C      0.932700    1.087300   -4.278000
C      0.073900    1.736200   -3.391000
C     -1.192500    2.012500   -3.868700
C     -1.482900    1.619900   -5.174400
Br     2.684900    0.664500   -3.723200
N      0.618700    0.727600   -5.519800
N     -0.612100    0.999200   -5.975800
H      0.395100    1.999700   -2.394700
H     -1.931800    2.512400   -3.259400
H     -2.452300    1.802000   -5.617300
