22

O      1.224000    0.000000    0.000000
C      0.000000    0.000000    0.000000
N     -0.718000    0.000000    1.154000
H     -1.717000    0.061000    1.108000
C     -0.809000   -0.010000   -1.276000
C     -0.049000    0.046000    2.436000
H     -0.777000   -0.133000    3.221000
H      0.720000   -0.720000    2.476000
H      0.429000    1.010000    2.602000
H     -1.882000   -0.038000   -1.106000
H     -0.515000   -0.876000   -1.863000
H     -0.559000    0.879000   -1.850000
C     -0.924700    4.205600    0.687200
C      0.220600    4.002000    1.456900
C      0.709200    5.111700    2.118900
C      0.017300    6.310600    1.954000
Br    -1.672100    2.754200   -0.256900
N     -1.558500    5.367700    0.553900
N     -1.078100    6.439700    1.199500
H      0.684900    3.029600    1.520700
H      1.591500    5.058100    2.740600
H      0.339400    7.220900    2.440300
