22

O      1.224000    0.000000    0.000000
C      0.000000    0.000000    0.000000
N     -0.718000    0.000000    1.154000
H     -1.717000    0.061000    1.108000
C     -0.809000   -0.010000   -1.276000
C     -0.049000    0.046000    2.436000
H     -0.777000   -0.133000    3.221000
H      0.720000   -0.720000    2.476000
H      0.429000    1.010000    2.602000
H     -1.882000   -0.038000   -1.106000
H     -0.515000   -0.876000   -1.863000
H     -0.559000    0.879000   -1.850000
C      5.033400    1.787300   -0.421700
C      4.407400    2.994400   -0.732300
C      5.023500    4.135200   -0.255400
C      6.195800    3.968600    0.480300
Br     4.272500    0.171000   -1.026000
N      6.154400    1.668000    0.284700
N      6.746100    2.779700    0.743900
H      3.496800    3.018400   -1.311500
H      4.617500    5.119100   -0.442000
H      6.734000    4.814100    0.885800
