22

O      1.224000    0.000000    0.000000
C      0.000000    0.000000    0.000000
N     -0.718000    0.000000    1.154000
H     -1.717000    0.061000    1.108000
C     -0.809000   -0.010000   -1.276000
C     -0.049000    0.046000    2.436000
H     -0.777000   -0.133000    3.221000
H      0.720000   -0.720000    2.476000
H      0.429000    1.010000    2.602000
H     -1.882000   -0.038000   -1.106000
H     -0.515000   -0.876000   -1.863000
H     -0.559000    0.879000   -1.850000
C      3.799900    1.251600   -1.217300
C      4.069600    2.181600   -0.213500
C      4.948200    1.771400    0.770500
C      5.471800    0.483900    0.663800
Br     2.613000    1.713100   -2.608300
N      4.320300    0.029000   -1.285500
N      5.171900   -0.361500   -0.326900
H      3.611100    3.158800   -0.219900
H      5.221800    2.418300    1.591800
H      6.165000    0.092900    1.395500
