22

O      1.224000    0.000000    0.000000
C      0.000000    0.000000    0.000000
N     -0.718000    0.000000    1.154000
H     -1.717000    0.061000    1.108000
C     -0.809000   -0.010000   -1.276000
C     -0.049000    0.046000    2.436000
H     -0.777000   -0.133000    3.221000
H      0.720000   -0.720000    2.476000
H      0.429000    1.010000    2.602000
H     -1.882000   -0.038000   -1.106000
H     -0.515000   -0.876000   -1.863000
H     -0.559000    0.879000   -1.850000
C      0.034100    3.530100   -2.135200
C      0.905500    3.615200   -3.221000
C      0.508600    4.446000   -4.250900
C     -0.709000    5.108900   -4.104500
Br     0.483200    2.422600   -0.676300
N     -1.122300    4.179700   -2.031300
N     -1.500300    4.983800   -3.034800
H      1.830300    3.058900   -3.239800
H      1.113500    4.580200   -5.136300
H     -1.085500    5.775200   -4.868100
