22

O      1.224000    0.000000    0.000000
C      0.000000    0.000000    0.000000
N     -0.718000    0.000000    1.154000
H     -1.717000    0.061000    1.108000
C     -0.809000   -0.010000   -1.276000
C     -0.049000    0.046000    2.436000
H     -0.777000   -0.133000    3.221000
H      0.720000   -0.720000    2.476000
H      0.429000    1.010000    2.602000
H     -1.882000   -0.038000   -1.106000
H     -0.515000   -0.876000   -1.863000
H     -0.559000    0.879000   -1.850000
C      1.063800   -3.999000   -0.747800
C      0.851700   -5.329600   -1.108100
C      1.648400   -6.262300   -0.472600
C      2.574200   -5.786500    0.454700
Br     0.027500   -2.647300   -1.557600
N      1.959200   -3.582500    0.143700
N      2.728400   -4.493700    0.756000
H      0.106000   -5.597700   -1.841000
H      1.561600   -7.318900   -0.682000
H      3.232000   -6.455900    0.991500
