22

O      1.224000    0.000000    0.000000
C      0.000000    0.000000    0.000000
N     -0.718000    0.000000    1.154000
H     -1.717000    0.061000    1.108000
C     -0.809000   -0.010000   -1.276000
C     -0.049000    0.046000    2.436000
H     -0.777000   -0.133000    3.221000
H      0.720000   -0.720000    2.476000
H      0.429000    1.010000    2.602000
H     -1.882000   -0.038000   -1.106000
H     -0.515000   -0.876000   -1.863000
H     -0.559000    0.879000   -1.850000
C      3.619700   -2.695100   -1.585700
C      3.561600   -3.459600   -2.750800
C      3.003900   -2.840700   -3.852800
C      2.559700   -1.529100   -3.692700
Br     4.363300   -3.447500   -0.024400
N      3.184400   -1.443100   -1.471300
N      2.644500   -0.849700   -2.545100
H      3.934400   -4.472400   -2.773400
H      2.913100   -3.348100   -4.802600
H      2.112400   -0.979900   -4.509500
