22

O      1.224000    0.000000    0.000000
C      0.000000    0.000000    0.000000
N     -0.718000    0.000000    1.154000
H     -1.717000    0.061000    1.108000
C     -0.809000   -0.010000   -1.276000
C     -0.049000    0.046000    2.436000
H     -0.777000   -0.133000    3.221000
H      0.720000   -0.720000    2.476000
H      0.429000    1.010000    2.602000
H     -1.882000   -0.038000   -1.106000
H     -0.515000   -0.876000   -1.863000
H     -0.559000    0.879000   -1.850000
C      2.722300   -4.967100   -3.280000
C      2.834800   -5.610500   -2.047600
C      2.740900   -6.988500   -2.074300
C      2.545200   -7.592000   -3.315500
Br     2.836800   -3.086100   -3.352900
N      2.535500   -5.578800   -4.446600
N      2.445300   -6.916100   -4.464000
H      2.986000   -5.050600   -1.137200
H      2.815300   -7.579400   -1.172600
H      2.462000   -8.665300   -3.415600
