22

O      1.224000    0.000000    0.000000
C      0.000000    0.000000    0.000000
N     -0.718000    0.000000    1.154000
H     -1.717000    0.061000    1.108000
C     -0.809000   -0.010000   -1.276000
C     -0.049000    0.046000    2.436000
H     -0.777000   -0.133000    3.221000
H      0.720000   -0.720000    2.476000
H      0.429000    1.010000    2.602000
H     -1.882000   -0.038000   -1.106000
H     -0.515000   -0.876000   -1.863000
H     -0.559000    0.879000   -1.850000
C      6.095900    2.542400   -3.338900
C      7.274400    2.722900   -2.615000
C      8.449200    2.508100   -3.309200
C      8.341600    2.136500   -4.648400
Br     4.436900    2.811000   -2.483200
N      6.033100    2.186400   -4.619300
N      7.177500    1.979800   -5.285800
H      7.252300    3.013200   -1.575500
H      9.415100    2.622000   -2.838100
H      9.216500    1.951300   -5.255900
