22

O      1.224000    0.000000    0.000000
C      0.000000    0.000000    0.000000
N     -0.718000    0.000000    1.154000
H     -1.717000    0.061000    1.108000
C     -0.809000   -0.010000   -1.276000
C     -0.049000    0.046000    2.436000
H     -0.777000   -0.133000    3.221000
H      0.720000   -0.720000    2.476000
H      0.429000    1.010000    2.602000
H     -1.882000   -0.038000   -1.106000
H     -0.515000   -0.876000   -1.863000
H     -0.559000    0.879000   -1.850000
C     -0.864000   -3.416000   -3.909400
C     -1.720400   -4.171800   -3.108900
C     -3.038800   -4.226400   -3.517600
C     -3.378500   -3.528800   -4.675800
Br     0.956900   -3.277400   -3.438500
N     -1.226000   -2.762600   -5.010400
N     -2.507100   -2.820600   -5.400300
H     -1.358700   -4.677400   -2.226500
H     -3.780800   -4.785500   -2.965700
H     -4.390100   -3.524800   -5.057300
