22

O      1.224000    0.000000    0.000000
C      0.000000    0.000000    0.000000
N     -0.718000    0.000000    1.154000
H     -1.717000    0.061000    1.108000
C     -0.809000   -0.010000   -1.276000
C     -0.049000    0.046000    2.436000
H     -0.777000   -0.133000    3.221000
H      0.720000   -0.720000    2.476000
H      0.429000    1.010000    2.602000
H     -1.882000   -0.038000   -1.106000
H     -0.515000   -0.876000   -1.863000
H     -0.559000    0.879000   -1.850000
C      2.706500    2.610700   -3.254000
C      3.337500    2.468300   -4.489800
C      4.500700    3.193300   -4.661800
C      4.923400    3.986000   -3.595900
Br     1.111000    1.663200   -2.917800
N      3.141500    3.378800   -2.258500
N      4.270900    4.079200   -2.433300
H      2.928300    1.826100   -5.254900
H      5.063900    3.151400   -5.583100
H      5.823800    4.581400   -3.656200
