22

O      1.224000    0.000000    0.000000
C      0.000000    0.000000    0.000000
N     -0.718000    0.000000    1.154000
H     -1.717000    0.061000    1.108000
C     -0.809000   -0.010000   -1.276000
C     -0.049000    0.046000    2.436000
H     -0.777000   -0.133000    3.221000
H      0.720000   -0.720000    2.476000
H      0.429000    1.010000    2.602000
H     -1.882000   -0.038000   -1.106000
H     -0.515000   -0.876000   -1.863000
H     -0.559000    0.879000   -1.850000
C      1.202500   -4.082600    1.044900
C      2.256100   -4.991500    0.949500
C      1.989100   -6.274500    1.386800
C      0.708400   -6.530200    1.874100
Br     1.463600   -2.304100    0.474300
N     -0.009000   -4.364500    1.516800
N     -0.260100   -5.611600    1.939100
H      3.216100   -4.694300    0.555400
H      2.738900   -7.052000    1.354600
H      0.425300   -7.509700    2.233800
