22

O      1.224000    0.000000    0.000000
C      0.000000    0.000000    0.000000
N     -0.718000    0.000000    1.154000
H     -1.717000    0.061000    1.108000
C     -0.809000   -0.010000   -1.276000
C     -0.049000    0.046000    2.436000
H     -0.777000   -0.133000    3.221000
H      0.720000   -0.720000    2.476000
H      0.429000    1.010000    2.602000
H     -1.882000   -0.038000   -1.106000
H     -0.515000   -0.876000   -1.863000
H     -0.559000    0.879000   -1.850000
C      3.001800    2.988600    3.864600
C      3.742300    3.638800    4.851600
C      3.028900    4.469300    5.694100
C      1.655900    4.573700    5.476600
Br     3.881500    1.832000    2.662500
N      1.689100    3.113800    3.687800
N      1.004000    3.921500    4.509400
H      4.808100    3.491100    4.938400
H      3.510500    5.017900    6.490800
H      1.031700    5.203800    6.095000
