22

O      1.224000    0.000000    0.000000
C      0.000000    0.000000    0.000000
N     -0.718000    0.000000    1.154000
H     -1.717000    0.061000    1.108000
C     -0.809000   -0.010000   -1.276000
C     -0.049000    0.046000    2.436000
H     -0.777000   -0.133000    3.221000
H      0.720000   -0.720000    2.476000
H      0.429000    1.010000    2.602000
H     -1.882000   -0.038000   -1.106000
H     -0.515000   -0.876000   -1.863000
H     -0.559000    0.879000   -1.850000
C      4.467000   -1.806400    1.222300
C      4.479300   -0.921400    0.144300
C      4.521700    0.421600    0.465200
C      4.547700    0.755000    1.818500
Br     4.409800   -3.662300    0.892100
N      4.492800   -1.449500    2.503800
N      4.533900   -0.144500    2.806800
H      4.456700   -1.280700   -0.873300
H      4.534400    1.186700   -0.297800
H      4.581200    1.784600    2.146700
