22

O      1.224000    0.000000    0.000000
C      0.000000    0.000000    0.000000
N     -0.718000    0.000000    1.154000
H     -1.717000    0.061000    1.108000
C     -0.809000   -0.010000   -1.276000
C     -0.049000    0.046000    2.436000
H     -0.777000   -0.133000    3.221000
H      0.720000   -0.720000    2.476000
H      0.429000    1.010000    2.602000
H     -1.882000   -0.038000   -1.106000
H     -0.515000   -0.876000   -1.863000
H     -0.559000    0.879000   -1.850000
C      0.014100    3.748100   -3.168900
C      0.515000    4.102000   -1.916200
C      0.835700    5.435200   -1.748000
C      0.629300    6.284300   -2.834100
Br    -0.454500    1.951900   -3.501500
N     -0.169300    4.589000   -4.183400
N      0.144300    5.880900   -4.012200
H      0.638500    3.366400   -1.136000
H      1.230900    5.809900   -0.814600
H      0.856700    7.339800   -2.777900
