22

O      1.224000    0.000000    0.000000
C      0.000000    0.000000    0.000000
N     -0.718000    0.000000    1.154000
H     -1.717000    0.061000    1.108000
C     -0.809000   -0.010000   -1.276000
C     -0.049000    0.046000    2.436000
H     -0.777000   -0.133000    3.221000
H      0.720000   -0.720000    2.476000
H      0.429000    1.010000    2.602000
H     -1.882000   -0.038000   -1.106000
H     -0.515000   -0.876000   -1.863000
H     -0.559000    0.879000   -1.850000
C      5.919200   -0.466300   -0.602700
C      5.647500   -1.139900    0.588000
C      5.714000   -2.518600    0.531300
C      6.042300   -3.092900   -0.695800
Br     5.854900    1.418300   -0.632100
N      6.229700   -1.050500   -1.757000
N      6.292200   -2.388600   -1.803700
H      5.401600   -0.601500    1.490600
H      5.520500   -3.131800    1.399800
H      6.113400   -4.164800   -0.817500
