22

O      1.224000    0.000000    0.000000
C      0.000000    0.000000    0.000000
N     -0.718000    0.000000    1.154000
H     -1.717000    0.061000    1.108000
C     -0.809000   -0.010000   -1.276000
C     -0.049000    0.046000    2.436000
H     -0.777000   -0.133000    3.221000
H      0.720000   -0.720000    2.476000
H      0.429000    1.010000    2.602000
H     -1.882000   -0.038000   -1.106000
H     -0.515000   -0.876000   -1.863000
H     -0.559000    0.879000   -1.850000
C     -0.536400    4.028700    1.742000
C      0.320200    4.288700    2.811600
C      0.205300    5.538900    3.388100
C     -0.744000    6.406200    2.849800
Br    -0.459400    2.350600    0.884900
N     -1.431700    4.884000    1.255200
N     -1.537000    6.095100    1.820000
H      1.024600    3.546800    3.156000
H      0.823700    5.837500    4.222500
H     -0.891500    7.400600    3.247700
