22

O      1.224000    0.000000    0.000000
C      0.000000    0.000000    0.000000
N     -0.718000    0.000000    1.154000
H     -1.717000    0.061000    1.108000
C     -0.809000   -0.010000   -1.276000
C     -0.049000    0.046000    2.436000
H     -0.777000   -0.133000    3.221000
H      0.720000   -0.720000    2.476000
H      0.429000    1.010000    2.602000
H     -1.882000   -0.038000   -1.106000
H     -0.515000   -0.876000   -1.863000
H     -0.559000    0.879000   -1.850000
C      1.168500    4.295700    0.078900
C      1.989900    5.340300   -0.344700
C      1.730000    5.840500   -1.605900
C      0.684800    5.258300   -2.321600
Br     1.440600    3.541800    1.786000
N      0.178500    3.765300   -0.634300
N     -0.067400    4.256100   -1.857100
H      2.776800    5.723300    0.287100
H      2.310000    6.649900   -2.025600
H      0.422300    5.596200   -3.314500
