22

O      1.224000    0.000000    0.000000
C      0.000000    0.000000    0.000000
N     -0.718000    0.000000    1.154000
H     -1.717000    0.061000    1.108000
C     -0.809000   -0.010000   -1.276000
C     -0.049000    0.046000    2.436000
H     -0.777000   -0.133000    3.221000
H      0.720000   -0.720000    2.476000
H      0.429000    1.010000    2.602000
H     -1.882000   -0.038000   -1.106000
H     -0.515000   -0.876000   -1.863000
H     -0.559000    0.879000   -1.850000
C      3.425300    1.094600   -3.176900
C      2.687500    2.239200   -2.875400
C      3.390700    3.275600   -2.292500
C      4.751800    3.076800   -2.066100
Br     2.558900   -0.378100   -3.975200
N      4.726500    0.941700   -2.945300
N      5.401600    1.951900   -2.379400
H      1.631300    2.295600   -3.091100
H      2.910200    4.204700   -2.021000
H      5.367500    3.842000   -1.614000
