22

O      1.224000    0.000000    0.000000
C      0.000000    0.000000    0.000000
N     -0.718000    0.000000    1.154000
H     -1.717000    0.061000    1.108000
C     -0.809000   -0.010000   -1.276000
C     -0.049000    0.046000    2.436000
H     -0.777000   -0.133000    3.221000
H      0.720000   -0.720000    2.476000
H      0.429000    1.010000    2.602000
H     -1.882000   -0.038000   -1.106000
H     -0.515000   -0.876000   -1.863000
H     -0.559000    0.879000   -1.850000
C      3.202500    3.748200   -3.478800
C      2.218200    4.639800   -3.904800
C      2.633600    5.627500   -4.776800
C      3.979500    5.634900   -5.140000
Br     2.738800    2.362200   -2.286900
N      4.480000    3.787300   -3.848300
N      4.875200    4.748700   -4.694600
H      1.197900    4.549700   -3.564300
H      1.947500    6.366800   -5.164600
H      4.378200    6.376700   -5.817900
