22

O      1.224000    0.000000    0.000000
C      0.000000    0.000000    0.000000
N     -0.718000    0.000000    1.154000
H     -1.717000    0.061000    1.108000
C     -0.809000   -0.010000   -1.276000
C     -0.049000    0.046000    2.436000
H     -0.777000   -0.133000    3.221000
H      0.720000   -0.720000    2.476000
H      0.429000    1.010000    2.602000
H     -1.882000   -0.038000   -1.106000
H     -0.515000   -0.876000   -1.863000
H     -0.559000    0.879000   -1.850000
C      3.820500   -1.897400    3.545900
C      3.714400   -0.772800    4.364000
C      2.973000   -0.932900    5.518600
C      2.411200   -2.187800    5.748700
Br     4.811500   -1.784100    1.945400
N      3.268800   -3.081200    3.799700
N      2.550900   -3.228400    4.922000
H      4.189000    0.159100    4.096600
H      2.831100   -0.121700    6.218400
H      1.818400   -2.389000    6.630300
