22

O      1.224000    0.000000    0.000000
C      0.000000    0.000000    0.000000
N     -0.718000    0.000000    1.154000
H     -1.717000    0.061000    1.108000
C     -0.809000   -0.010000   -1.276000
C     -0.049000    0.046000    2.436000
H     -0.777000   -0.133000    3.221000
H      0.720000   -0.720000    2.476000
H      0.429000    1.010000    2.602000
H     -1.882000   -0.038000   -1.106000
H     -0.515000   -0.876000   -1.863000
H     -0.559000    0.879000   -1.850000
C      4.365700   -4.506000    1.051300
C      5.606300   -4.699000    0.443800
C      6.167200   -5.951800    0.599300
C      5.446200   -6.887700    1.339200
Br     3.514100   -2.830300    0.898700
N      3.706800   -5.425800    1.751300
N      4.257800   -6.638900    1.897600
H      6.085600   -3.906800   -0.111000
H      7.125700   -6.201600    0.167000
H      5.820700   -7.888500    1.503700
