22

O      1.224000    0.000000    0.000000
C      0.000000    0.000000    0.000000
N     -0.718000    0.000000    1.154000
H     -1.717000    0.061000    1.108000
C     -0.809000   -0.010000   -1.276000
C     -0.049000    0.046000    2.436000
H     -0.777000   -0.133000    3.221000
H      0.720000   -0.720000    2.476000
H      0.429000    1.010000    2.602000
H     -1.882000   -0.038000   -1.106000
H     -0.515000   -0.876000   -1.863000
H     -0.559000    0.879000   -1.850000
C      4.615400    1.874700    2.562900
C      5.304800    2.200200    3.731000
C      5.556700    3.543900    3.929800
C      5.102300    4.430600    2.954800
Br     4.221400    0.067100    2.197200
N      4.197000    2.751300    1.653700
N      4.445300    4.053200    1.854000
H      5.615500    1.436100    4.427300
H      6.084100    3.898600    4.803800
H      5.262100    5.496400    3.041200
