22

O      1.224000    0.000000    0.000000
C      0.000000    0.000000    0.000000
N     -0.718000    0.000000    1.154000
H     -1.717000    0.061000    1.108000
C     -0.809000   -0.010000   -1.276000
C     -0.049000    0.046000    2.436000
H     -0.777000   -0.133000    3.221000
H      0.720000   -0.720000    2.476000
H      0.429000    1.010000    2.602000
H     -1.882000   -0.038000   -1.106000
H     -0.515000   -0.876000   -1.863000
H     -0.559000    0.879000   -1.850000
C     -0.503900   -1.242200   -3.331900
C      0.580800   -2.054000   -3.000600
C      0.304100   -3.398300   -2.843600
C     -1.016200   -3.805200   -3.029600
Br    -0.232700    0.609000   -3.568800
N     -1.752900   -1.668100   -3.501500
N     -2.013200   -2.973900   -3.347400
H      1.570500   -1.640900   -2.877900
H      1.075800   -4.109900   -2.587000
H     -1.309100   -4.840500   -2.923800
