22

O      1.224000    0.000000    0.000000
C      0.000000    0.000000    0.000000
N     -0.718000    0.000000    1.154000
H     -1.717000    0.061000    1.108000
C     -0.809000   -0.010000   -1.276000
C     -0.049000    0.046000    2.436000
H     -0.777000   -0.133000    3.221000
H      0.720000   -0.720000    2.476000
H      0.429000    1.010000    2.602000
H     -1.882000   -0.038000   -1.106000
H     -0.515000   -0.876000   -1.863000
H     -0.559000    0.879000   -1.850000
C     -0.391200   -2.727800   -3.625400
C      0.915100   -3.206100   -3.727600
C      1.317200   -3.601300   -4.988800
C      0.388500   -3.484300   -6.021800
Br    -1.038200   -2.162500   -1.946600
N     -1.250200   -2.630800   -4.636700
N     -0.852400   -3.016300   -5.857300
H      1.560000   -3.257800   -2.863600
H      2.310000   -3.986300   -5.172600
H      0.630400   -3.773400   -7.035100
