22

O      1.224000    0.000000    0.000000
C      0.000000    0.000000    0.000000
N     -0.718000    0.000000    1.154000
H     -1.717000    0.061000    1.108000
C     -0.809000   -0.010000   -1.276000
C     -0.049000    0.046000    2.436000
H     -0.777000   -0.133000    3.221000
H      0.720000   -0.720000    2.476000
H      0.429000    1.010000    2.602000
H     -1.882000   -0.038000   -1.106000
H     -0.515000   -0.876000   -1.863000
H     -0.559000    0.879000   -1.850000
C      2.465100   -1.272900   -3.963800
C      2.479000   -2.046300   -2.803200
C      1.822800   -3.259700   -2.877400
C      1.219000   -3.586800   -4.090500
Br     3.332700    0.401600   -3.967400
N      1.876600   -1.619600   -5.105600
N      1.242000   -2.798500   -5.169400
H      2.977100   -1.702800   -1.909200
H      1.776400   -3.931700   -2.032400
H      0.687500   -4.518700   -4.224500
