22

O      1.224000    0.000000    0.000000
C      0.000000    0.000000    0.000000
N     -0.718000    0.000000    1.154000
H     -1.717000    0.061000    1.108000
C     -0.809000   -0.010000   -1.276000
C     -0.049000    0.046000    2.436000
H     -0.777000   -0.133000    3.221000
H      0.720000   -0.720000    2.476000
H      0.429000    1.010000    2.602000
H     -1.882000   -0.038000   -1.106000
H     -0.515000   -0.876000   -1.863000
H     -0.559000    0.879000   -1.850000
C      2.969800   -2.577100   -1.221600
C      3.454800   -2.005800   -2.397900
C      3.309400   -2.764500   -3.543200
C      2.699500   -4.011100   -3.411100
Br     3.119800   -1.622700    0.398000
N      2.392300   -3.772600   -1.134800
N      2.254900   -4.502600   -2.250600
H      3.913500   -1.028700   -2.396300
H      3.652600   -2.410900   -4.505000
H      2.551000   -4.661000   -4.262200
