22

O      1.224000    0.000000    0.000000
C      0.000000    0.000000    0.000000
N     -0.718000    0.000000    1.154000
H     -1.717000    0.061000    1.108000
C     -0.809000   -0.010000   -1.276000
C     -0.049000    0.046000    2.436000
H     -0.777000   -0.133000    3.221000
H      0.720000   -0.720000    2.476000
H      0.429000    1.010000    2.602000
H     -1.882000   -0.038000   -1.106000
H     -0.515000   -0.876000   -1.863000
H     -0.559000    0.879000   -1.850000
C      1.733400   -0.820600   -4.030900
C      2.629500   -1.861100   -3.786700
C      2.175700   -3.131800   -4.083000
C      0.882500   -3.246600   -4.590700
Br     2.255600    0.953200   -3.660000
N      0.504100   -0.969700   -4.517400
N      0.071200   -2.205900   -4.802400
H      3.614600   -1.668100   -3.389800
H      2.793800   -4.004800   -3.929400
H      0.458400   -4.207800   -4.845900
