22

O      1.224000    0.000000    0.000000
C      0.000000    0.000000    0.000000
N     -0.718000    0.000000    1.154000
H     -1.717000    0.061000    1.108000
C     -0.809000   -0.010000   -1.276000
C     -0.049000    0.046000    2.436000
H     -0.777000   -0.133000    3.221000
H      0.720000   -0.720000    2.476000
H      0.429000    1.010000    2.602000
H     -1.882000   -0.038000   -1.106000
H     -0.515000   -0.876000   -1.863000
H     -0.559000    0.879000   -1.850000
C      6.017600   -2.360100   -0.125100
C      6.738000   -3.094800    0.816500
C      8.032300   -3.424900    0.464100
C      8.484500   -2.996000   -0.782800
Br     4.240600   -1.858600    0.258900
N      6.484400   -1.968000   -1.307600
N      7.741300   -2.292300   -1.642100
H      6.296100   -3.380300    1.759000
H      8.672600   -3.992300    1.124400
H      9.485300   -3.216100   -1.127800
