22

O      1.224000    0.000000    0.000000
C      0.000000    0.000000    0.000000
N     -0.718000    0.000000    1.154000
H     -1.717000    0.061000    1.108000
C     -0.809000   -0.010000   -1.276000
C     -0.049000    0.046000    2.436000
H     -0.777000   -0.133000    3.221000
H      0.720000   -0.720000    2.476000
H      0.429000    1.010000    2.602000
H     -1.882000   -0.038000   -1.106000
H     -0.515000   -0.876000   -1.863000
H     -0.559000    0.879000   -1.850000
C     -0.920900   -3.482000   -3.470800
C     -1.343700   -4.447000   -4.384800
C     -2.506300   -5.118900   -4.060200
C     -3.134100   -4.769700   -2.865500
Br     0.655600   -2.507800   -3.820400
N     -1.548400   -3.176000   -2.338200
N     -2.675800   -3.832400   -2.030500
H     -0.784600   -4.644800   -5.286700
H     -2.916800   -5.884700   -4.702700
H     -4.047300   -5.251500   -2.544800
