22

O      1.224000    0.000000    0.000000
C      0.000000    0.000000    0.000000
N     -0.718000    0.000000    1.154000
H     -1.717000    0.061000    1.108000
C     -0.809000   -0.010000   -1.276000
C     -0.049000    0.046000    2.436000
H     -0.777000   -0.133000    3.221000
H      0.720000   -0.720000    2.476000
H      0.429000    1.010000    2.602000
H     -1.882000   -0.038000   -1.106000
H     -0.515000   -0.876000   -1.863000
H     -0.559000    0.879000   -1.850000
C      1.925400    4.698400   -2.802900
C      1.430000    5.365400   -3.923200
C      1.256200    6.729100   -3.787200
C      1.589100    7.296500   -2.558200
Br     2.199000    2.834300   -2.884700
N      2.232400    5.275800   -1.644200
N      2.060900    6.599400   -1.520200
H      1.201400    4.833200   -4.834100
H      0.877900    7.336100   -4.597300
H      1.480100    8.356800   -2.376800
