22

O      1.224000    0.000000    0.000000
C      0.000000    0.000000    0.000000
N     -0.718000    0.000000    1.154000
H     -1.717000    0.061000    1.108000
C     -0.809000   -0.010000   -1.276000
C     -0.049000    0.046000    2.436000
H     -0.777000   -0.133000    3.221000
H      0.720000   -0.720000    2.476000
H      0.429000    1.010000    2.602000
H     -1.882000   -0.038000   -1.106000
H     -0.515000   -0.876000   -1.863000
H     -0.559000    0.879000   -1.850000
C      3.388600    2.837100   -0.825400
C      2.213700    3.564700   -1.014200
C      1.300700    3.518000    0.021600
C      1.640300    2.757300    1.139300
Br     4.700500    2.835100   -2.180200
N      3.677800    2.121100    0.258000
N      2.786700    2.080900    1.258600
H      2.043600    4.125300   -1.920800
H      0.360000    4.047700   -0.027500
H      0.976900    2.673100    1.988800
