22

O      1.224000    0.000000    0.000000
C      0.000000    0.000000    0.000000
N     -0.718000    0.000000    1.154000
H     -1.717000    0.061000    1.108000
C     -0.809000   -0.010000   -1.276000
C     -0.049000    0.046000    2.436000
H     -0.777000   -0.133000    3.221000
H      0.720000   -0.720000    2.476000
H      0.429000    1.010000    2.602000
H     -1.882000   -0.038000   -1.106000
H     -0.515000   -0.876000   -1.863000
H     -0.559000    0.879000   -1.850000
C      3.572400   -3.995100   -3.195700
C      2.193500   -4.076300   -3.389200
C      1.679600   -5.348500   -3.550600
C      2.579600   -6.412100   -3.504700
Br     4.373800   -2.303600   -2.964900
N      4.400900   -5.035400   -3.157800
N      3.894500   -6.266400   -3.315300
H      1.579200   -3.189000   -3.408900
H      0.623800   -5.517900   -3.706500
H      2.252000   -7.435600   -3.622900
