22

O      1.224000    0.000000    0.000000
C      0.000000    0.000000    0.000000
N     -0.718000    0.000000    1.154000
H     -1.717000    0.061000    1.108000
C     -0.809000   -0.010000   -1.276000
C     -0.049000    0.046000    2.436000
H     -0.777000   -0.133000    3.221000
H      0.720000   -0.720000    2.476000
H      0.429000    1.010000    2.602000
H     -1.882000   -0.038000   -1.106000
H     -0.515000   -0.876000   -1.863000
H     -0.559000    0.879000   -1.850000
C     -0.134200   -1.307300   -4.049800
C      1.192500   -1.193600   -4.465100
C      1.881400   -2.381000   -4.619600
C      1.190500   -3.561000   -4.348400
Br    -1.162800    0.254900   -3.808800
N     -0.760700   -2.454200   -3.800200
N     -0.085300   -3.601900   -3.952400
H      1.638900   -0.228400   -4.650200
H      2.914100   -2.400100   -4.937500
H      1.663000   -4.528400   -4.446900
