22

O      1.224000    0.000000    0.000000
C      0.000000    0.000000    0.000000
N     -0.718000    0.000000    1.154000
H     -1.717000    0.061000    1.108000
C     -0.809000   -0.010000   -1.276000
C     -0.049000    0.046000    2.436000
H     -0.777000   -0.133000    3.221000
H      0.720000   -0.720000    2.476000
H      0.429000    1.010000    2.602000
H     -1.882000   -0.038000   -1.106000
H     -0.515000   -0.876000   -1.863000
H     -0.559000    0.879000   -1.850000
C      0.312600   -3.923400   -2.286800
C      1.480500   -4.685400   -2.318300
C      1.347700   -5.975700   -2.793600
C      0.074900   -6.383200   -3.189900
Br     0.385900   -2.148100   -1.654600
N     -0.887100   -4.348100   -2.674400
N     -1.007500   -5.601400   -3.134400
H      2.423100   -4.276500   -1.987600
H      2.192900   -6.646000   -2.857800
H     -0.106900   -7.378000   -3.572300
