22

O      1.224000    0.000000    0.000000
C      0.000000    0.000000    0.000000
N     -0.718000    0.000000    1.154000
H     -1.717000    0.061000    1.108000
C     -0.809000   -0.010000   -1.276000
C     -0.049000    0.046000    2.436000
H     -0.777000   -0.133000    3.221000
H      0.720000   -0.720000    2.476000
H      0.429000    1.010000    2.602000
H     -1.882000   -0.038000   -1.106000
H     -0.515000   -0.876000   -1.863000
H     -0.559000    0.879000   -1.850000
C     -0.765600    3.979200   -1.231300
C     -1.380500    4.501400   -2.369200
C     -1.478500    5.878300   -2.425400
C     -0.959300    6.600400   -1.352000
Br    -0.581900    2.110400   -1.057100
N     -0.281200    4.702300   -0.225100
N     -0.380200    6.037600   -0.287200
H     -1.751900    3.854900   -3.149700
H     -1.938000    6.380200   -3.264900
H     -0.999300    7.680500   -1.324900
