22

O      1.224000    0.000000    0.000000
C      0.000000    0.000000    0.000000
N     -0.718000    0.000000    1.154000
H     -1.717000    0.061000    1.108000
C     -0.809000   -0.010000   -1.276000
C     -0.049000    0.046000    2.436000
H     -0.777000   -0.133000    3.221000
H      0.720000   -0.720000    2.476000
H      0.429000    1.010000    2.602000
H     -1.882000   -0.038000   -1.106000
H     -0.515000   -0.876000   -1.863000
H     -0.559000    0.879000   -1.850000
C      4.462800    2.572400    1.865200
C      4.946900    3.804200    1.424900
C      5.696700    4.520400    2.337800
C      5.892700    3.947700    3.593500
Br     3.427600    1.516100    0.695100
N      4.671300    2.057900    3.074300
N      5.399800    2.759000    3.954300
H      4.739200    4.161700    0.427800
H      6.116600    5.485700    2.093600
H      6.468100    4.448300    4.359800
