22

O      1.224000    0.000000    0.000000
C      0.000000    0.000000    0.000000
N     -0.718000    0.000000    1.154000
H     -1.717000    0.061000    1.108000
C     -0.809000   -0.010000   -1.276000
C     -0.049000    0.046000    2.436000
H     -0.777000   -0.133000    3.221000
H      0.720000   -0.720000    2.476000
H      0.429000    1.010000    2.602000
H     -1.882000   -0.038000   -1.106000
H     -0.515000   -0.876000   -1.863000
H     -0.559000    0.879000   -1.850000
C      5.406900   -1.929700   -1.842200
C      6.419400   -2.617200   -1.173100
C      6.348200   -3.996000   -1.221900
C      5.284200   -4.556600   -1.926800
Br     5.412300   -0.043800   -1.836200
N      4.405300   -2.501100   -2.505700
N      4.343400   -3.839400   -2.548500
H      7.203900   -2.088700   -0.653200
H      7.084700   -4.619300   -0.735300
H      5.162100   -5.627700   -2.008900
