22

O      1.224000    0.000000    0.000000
C      0.000000    0.000000    0.000000
N     -0.718000    0.000000    1.154000
H     -1.717000    0.061000    1.108000
C     -0.809000   -0.010000   -1.276000
C     -0.049000    0.046000    2.436000
H     -0.777000   -0.133000    3.221000
H      0.720000   -0.720000    2.476000
H      0.429000    1.010000    2.602000
H     -1.882000   -0.038000   -1.106000
H     -0.515000   -0.876000   -1.863000
H     -0.559000    0.879000   -1.850000
C      0.535800   -3.213700   -1.704800
C     -0.801900   -3.067000   -2.071600
C     -1.686500   -3.962600   -1.502500
C     -1.160600   -4.912700   -0.628500
Br     1.824400   -2.040800   -2.426100
N      1.000800   -4.135200   -0.865300
N      0.136100   -5.000400   -0.317400
H     -1.110700   -2.295000   -2.760000
H     -2.744100   -3.932300   -1.722500
H     -1.790700   -5.646300   -0.144900
