22

O      1.224000    0.000000    0.000000
C      0.000000    0.000000    0.000000
N     -0.718000    0.000000    1.154000
H     -1.717000    0.061000    1.108000
C     -0.809000   -0.010000   -1.276000
C     -0.049000    0.046000    2.436000
H     -0.777000   -0.133000    3.221000
H      0.720000   -0.720000    2.476000
H      0.429000    1.010000    2.602000
H     -1.882000   -0.038000   -1.106000
H     -0.515000   -0.876000   -1.863000
H     -0.559000    0.879000   -1.850000
C      4.528400   -1.626600    3.881800
C      4.881100   -2.807800    4.534500
C      4.159300   -3.107700    5.673500
C      3.161900   -2.210800    6.053100
Br     5.453200   -1.125800    2.316400
N      3.568300   -0.794000    4.275400
N      2.872500   -1.092200    5.381600
H      5.672700   -3.438300    4.159000
H      4.355600   -4.000000    6.250600
H      2.555800   -2.378100    6.932600
