22

O      1.224000    0.000000    0.000000
C      0.000000    0.000000    0.000000
N     -0.718000    0.000000    1.154000
H     -1.717000    0.061000    1.108000
C     -0.809000   -0.010000   -1.276000
C     -0.049000    0.046000    2.436000
H     -0.777000   -0.133000    3.221000
H      0.720000   -0.720000    2.476000
H      0.429000    1.010000    2.602000
H     -1.882000   -0.038000   -1.106000
H     -0.515000   -0.876000   -1.863000
H     -0.559000    0.879000   -1.850000
C      5.767600    1.865200    2.736700
C      5.716800    0.487800    2.523700
C      6.887600   -0.204800    2.764100
C      7.990700    0.533100    3.190900
Br     4.221800    2.903100    2.437000
N      6.841700    2.535700    3.145300
N      7.973900    1.856400    3.376500
H      4.809200    0.007400    2.190800
H      6.951400   -1.275000    2.628600
H      8.940700    0.060800    3.398900
