22

O      1.224000    0.000000    0.000000
C      0.000000    0.000000    0.000000
N     -0.718000    0.000000    1.154000
H     -1.717000    0.061000    1.108000
C     -0.809000   -0.010000   -1.276000
C     -0.049000    0.046000    2.436000
H     -0.777000   -0.133000    3.221000
H      0.720000   -0.720000    2.476000
H      0.429000    1.010000    2.602000
H     -1.882000   -0.038000   -1.106000
H     -0.515000   -0.876000   -1.863000
H     -0.559000    0.879000   -1.850000
C     -0.242200   -3.682700    0.994300
C     -1.548100   -3.465100    0.555500
C     -2.534300   -4.167300    1.220900
C     -2.131100   -5.013700    2.252600
Br     1.178200   -2.772000    0.151800
N      0.104400   -4.500400    1.984900
N     -0.858400   -5.178200    2.625500
H     -1.758500   -2.785600   -0.256400
H     -3.577400   -4.068400    0.956500
H     -2.845300   -5.595400    2.818600
