22

O      1.224000    0.000000    0.000000
C      0.000000    0.000000    0.000000
N     -0.718000    0.000000    1.154000
H     -1.717000    0.061000    1.108000
C     -0.809000   -0.010000   -1.276000
C     -0.049000    0.046000    2.436000
H     -0.777000   -0.133000    3.221000
H      0.720000   -0.720000    2.476000
H      0.429000    1.010000    2.602000
H     -1.882000   -0.038000   -1.106000
H     -0.515000   -0.876000   -1.863000
H     -0.559000    0.879000   -1.850000
C      1.432400   -3.934700   -1.422100
C      2.786800   -4.267300   -1.440500
C      3.274500   -4.750100   -2.639400
C      2.375200   -4.855700   -3.699300
Br     0.667800   -3.266200    0.167000
N      0.603700   -4.049600   -2.456500
N      1.084600   -4.518900   -3.616300
H      3.402900   -4.148500   -0.562100
H      4.310100   -5.035700   -2.756400
H      2.683200   -5.225000   -4.667600
