22

O      1.224000    0.000000    0.000000
C      0.000000    0.000000    0.000000
N     -0.718000    0.000000    1.154000
H     -1.717000    0.061000    1.108000
C     -0.809000   -0.010000   -1.276000
C     -0.049000    0.046000    2.436000
H     -0.777000   -0.133000    3.221000
H      0.720000   -0.720000    2.476000
H      0.429000    1.010000    2.602000
H     -1.882000   -0.038000   -1.106000
H     -0.515000   -0.876000   -1.863000
H     -0.559000    0.879000   -1.850000
C      5.602000   -1.102100    2.190400
C      5.271600   -1.933200    3.260700
C      6.073000   -1.824100    4.380600
C      7.120000   -0.905000    4.330400
Br     4.569900   -1.173700    0.613600
N      6.611400   -0.235400    2.179700
N      7.384300   -0.135500    3.270300
H      4.436900   -2.615000    3.201200
H      5.899900   -2.424300    5.262400
H      7.789100   -0.763800    5.167900
