22

O      1.224000    0.000000    0.000000
C      0.000000    0.000000    0.000000
N     -0.718000    0.000000    1.154000
H     -1.717000    0.061000    1.108000
C     -0.809000   -0.010000   -1.276000
C     -0.049000    0.046000    2.436000
H     -0.777000   -0.133000    3.221000
H      0.720000   -0.720000    2.476000
H      0.429000    1.010000    2.602000
H     -1.882000   -0.038000   -1.106000
H     -0.515000   -0.876000   -1.863000
H     -0.559000    0.879000   -1.850000
C     -1.323900    4.313300   -1.926400
C     -1.566800    3.472100   -3.012200
C     -1.545600    4.070500   -4.257100
C     -1.286800    5.439500   -4.304100
Br    -1.330600    3.594800   -0.182800
N     -1.080100    5.618500   -2.011100
N     -1.061300    6.191600   -3.222700
H     -1.758000    2.419200   -2.871000
H     -1.721900    3.505100   -5.161100
H     -1.254200    5.977000   -5.241600
