22

O      1.224000    0.000000    0.000000
C      0.000000    0.000000    0.000000
N     -0.718000    0.000000    1.154000
H     -1.717000    0.061000    1.108000
C     -0.809000   -0.010000   -1.276000
C     -0.049000    0.046000    2.436000
H     -0.777000   -0.133000    3.221000
H      0.720000   -0.720000    2.476000
H      0.429000    1.010000    2.602000
H     -1.882000   -0.038000   -1.106000
H     -0.515000   -0.876000   -1.863000
H     -0.559000    0.879000   -1.850000
C      1.607100    1.252000   -2.955500
C      0.372000    0.997000   -3.551200
C      0.115200   -0.322600   -3.869200
C      1.104200   -1.257300   -3.566600
Br     2.055600    3.021600   -2.482200
N      2.527600    0.331200   -2.681700
N      2.270800   -0.946900   -2.993300
H     -0.329500    1.794000   -3.745200
H     -0.813000   -0.623600   -4.333600
H      0.975200   -2.308100   -3.785800
