22

O      1.224000    0.000000    0.000000
C      0.000000    0.000000    0.000000
N     -0.718000    0.000000    1.154000
H     -1.717000    0.061000    1.108000
C     -0.809000   -0.010000   -1.276000
C     -0.049000    0.046000    2.436000
H     -0.777000   -0.133000    3.221000
H      0.720000   -0.720000    2.476000
H      0.429000    1.010000    2.602000
H     -1.882000   -0.038000   -1.106000
H     -0.515000   -0.876000   -1.863000
H     -0.559000    0.879000   -1.850000
C     -0.100700   -4.274100   -1.668100
C     -0.461400   -4.171600   -3.011600
C     -0.283800   -5.310000   -3.773700
C      0.232000   -6.434900   -3.132000
Br    -0.304200   -2.775800   -0.541100
N      0.389500   -5.367700   -1.090300
N      0.558800   -6.468200   -1.836600
H     -0.854000   -3.250900   -3.415700
H     -0.533000   -5.333100   -4.825000
H      0.398600   -7.362100   -3.662700
