22

O      1.224000    0.000000    0.000000
C      0.000000    0.000000    0.000000
N     -0.718000    0.000000    1.154000
H     -1.717000    0.061000    1.108000
C     -0.809000   -0.010000   -1.276000
C     -0.049000    0.046000    2.436000
H     -0.777000   -0.133000    3.221000
H      0.720000   -0.720000    2.476000
H      0.429000    1.010000    2.602000
H     -1.882000   -0.038000   -1.106000
H     -0.515000   -0.876000   -1.863000
H     -0.559000    0.879000   -1.850000
C      3.727300   -2.805600   -1.092600
C      3.566800   -3.358000    0.178000
C      3.079000   -4.649800    0.218400
C      2.798800   -5.265800   -1.000400
Br     4.387300   -1.046700   -1.257600
N      3.448300   -3.426200   -2.235900
N      2.975400   -4.679500   -2.188200
H      3.813600   -2.796500    1.066300
H      2.919100   -5.166500    1.154000
H      2.414600   -6.275200   -1.048700
