22

O      1.224000    0.000000    0.000000
C      0.000000    0.000000    0.000000
N     -0.718000    0.000000    1.154000
H     -1.717000    0.061000    1.108000
C     -0.809000   -0.010000   -1.276000
C     -0.049000    0.046000    2.436000
H     -0.777000   -0.133000    3.221000
H      0.720000   -0.720000    2.476000
H      0.429000    1.010000    2.602000
H     -1.882000   -0.038000   -1.106000
H     -0.515000   -0.876000   -1.863000
H     -0.559000    0.879000   -1.850000
C      2.731300    4.219000   -3.483400
C      2.269500    4.943400   -4.582200
C      2.104900    6.300800   -4.385500
C      2.413000    6.805800   -3.123200
Br     2.989800    2.358100   -3.647500
N      3.015400    4.737500   -2.291600
N      2.853000    6.055400   -2.108700
H      2.058100    4.457400   -5.522600
H      1.751900    6.949400   -5.174500
H      2.309400    7.857300   -2.894100
