22

O      1.224000    0.000000    0.000000
C      0.000000    0.000000    0.000000
N     -0.718000    0.000000    1.154000
H     -1.717000    0.061000    1.108000
C     -0.809000   -0.010000   -1.276000
C     -0.049000    0.046000    2.436000
H     -0.777000   -0.133000    3.221000
H      0.720000   -0.720000    2.476000
H      0.429000    1.010000    2.602000
H     -1.882000   -0.038000   -1.106000
H     -0.515000   -0.876000   -1.863000
H     -0.559000    0.879000   -1.850000
C      1.868000   -3.415800    3.410400
C      1.839900   -4.278100    4.506400
C      1.627700   -5.612800    4.220200
C      1.464700   -5.961200    2.880300
Br     2.151400   -1.572900    3.693200
N      1.708000   -3.786500    2.142700
N      1.502600   -5.083400    1.873300
H      1.977300   -3.908600    5.511200
H      1.588700   -6.360500    4.999400
H      1.294900   -6.985600    2.579000
