22

O      1.224000    0.000000    0.000000
C      0.000000    0.000000    0.000000
N     -0.718000    0.000000    1.154000
H     -1.717000    0.061000    1.108000
C     -0.809000   -0.010000   -1.276000
C     -0.049000    0.046000    2.436000
H     -0.777000   -0.133000    3.221000
H      0.720000   -0.720000    2.476000
H      0.429000    1.010000    2.602000
H     -1.882000   -0.038000   -1.106000
H     -0.515000   -0.876000   -1.863000
H     -0.559000    0.879000   -1.850000
C     -1.027700    2.557100    3.076200
C     -0.135700    3.628600    3.034800
C     -0.463900    4.655300    2.170700
C     -1.640100    4.520100    1.434700
Br    -0.671400    1.103700    4.223900
N     -2.143000    2.463600    2.356800
N     -2.454300    3.464000    1.520800
H      0.753000    3.639400    3.647400
H      0.162000    5.530000    2.065700
H     -1.962300    5.282100    0.738600
