22

O      1.224000    0.000000    0.000000
C      0.000000    0.000000    0.000000
N     -0.718000    0.000000    1.154000
H     -1.717000    0.061000    1.108000
C     -0.809000   -0.010000   -1.276000
C     -0.049000    0.046000    2.436000
H     -0.777000   -0.133000    3.221000
H      0.720000   -0.720000    2.476000
H      0.429000    1.010000    2.602000
H     -1.882000   -0.038000   -1.106000
H     -0.515000   -0.876000   -1.863000
H     -0.559000    0.879000   -1.850000
C      1.766900    2.842600   -0.852900
C      1.901000    2.657400    0.523100
C      3.173800    2.822600    1.034000
C      4.185800    3.154000    0.134400
Br     0.069800    2.640100   -1.650100
N      2.758700    3.159200   -1.681100
N      3.990800    3.317700   -1.177500
H      1.051400    2.400700    1.137400
H      3.382100    2.701000    2.087400
H      5.206500    3.299300    0.459800
