22

O      1.224000    0.000000    0.000000
C      0.000000    0.000000    0.000000
N     -0.718000    0.000000    1.154000
H     -1.717000    0.061000    1.108000
C     -0.809000   -0.010000   -1.276000
C     -0.049000    0.046000    2.436000
H     -0.777000   -0.133000    3.221000
H      0.720000   -0.720000    2.476000
H      0.429000    1.010000    2.602000
H     -1.882000   -0.038000   -1.106000
H     -0.515000   -0.876000   -1.863000
H     -0.559000    0.879000   -1.850000
C      2.894800   -1.460900    3.975100
C      2.342100   -1.255100    5.239100
C      2.853400   -2.036700    6.257000
C      3.859100   -2.942800    5.923700
Br     2.266300   -0.444000    2.516500
N      3.855900   -2.337200    3.695300
N      4.346700   -3.091900    4.688500
H      1.562500   -0.525100    5.395600
H      2.492200   -1.953200    7.272100
H      4.307700   -3.587900    6.666300
