22

O      1.224000    0.000000    0.000000
C      0.000000    0.000000    0.000000
N     -0.718000    0.000000    1.154000
H     -1.717000    0.061000    1.108000
C     -0.809000   -0.010000   -1.276000
C     -0.049000    0.046000    2.436000
H     -0.777000   -0.133000    3.221000
H      0.720000   -0.720000    2.476000
H      0.429000    1.010000    2.602000
H     -1.882000   -0.038000   -1.106000
H     -0.515000   -0.876000   -1.863000
H     -0.559000    0.879000   -1.850000
C      3.341300    0.953600   -2.284200
C      4.323800    1.896100   -1.981100
C      4.281700    3.068900   -2.710000
C      3.273400    3.192500   -3.664600
Br     3.310800   -0.682000   -1.345800
N      2.393000    1.107800   -3.204500
N      2.359000    2.248700   -3.907400
H      5.065100    1.705000   -1.220100
H      4.998800    3.861500   -2.550600
H      3.176800    4.080800   -4.273300
