22

O      1.224000    0.000000    0.000000
C      0.000000    0.000000    0.000000
N     -0.718000    0.000000    1.154000
H     -1.717000    0.061000    1.108000
C     -0.809000   -0.010000   -1.276000
C     -0.049000    0.046000    2.436000
H     -0.777000   -0.133000    3.221000
H      0.720000   -0.720000    2.476000
H      0.429000    1.010000    2.602000
H     -1.882000   -0.038000   -1.106000
H     -0.515000   -0.876000   -1.863000
H     -0.559000    0.879000   -1.850000
C     -0.207100    3.053700   -0.209500
C      1.022400    2.832100   -0.829700
C      1.207700    3.459700   -2.046300
C      0.159800    4.242900   -2.527700
Br    -0.560300    2.242200    1.455800
N     -1.185200    3.809800   -0.701300
N     -0.997700    4.415300   -1.882300
H      1.773200    2.205200   -0.373000
H      2.125500    3.351300   -2.606300
H      0.231200    4.764600   -3.472000
