22

O      1.224000    0.000000    0.000000
C      0.000000    0.000000    0.000000
N     -0.718000    0.000000    1.154000
H     -1.717000    0.061000    1.108000
C     -0.809000   -0.010000   -1.276000
C     -0.049000    0.046000    2.436000
H     -0.777000   -0.133000    3.221000
H      0.720000   -0.720000    2.476000
H      0.429000    1.010000    2.602000
H     -1.882000   -0.038000   -1.106000
H     -0.515000   -0.876000   -1.863000
H     -0.559000    0.879000   -1.850000
C      0.110200   -2.739000   -3.638900
C      1.263900   -2.231600   -4.236500
C      1.394500   -2.463400   -5.592100
C      0.372400   -3.172900   -6.220800
Br    -0.163900   -2.476600   -1.791600
N     -0.845400   -3.412900   -4.273500
N     -0.711300   -3.633600   -5.588700
H      2.000400   -1.692600   -3.660300
H      2.252000   -2.111200   -6.147600
H      0.404400   -3.392700   -7.278900
