22

O      1.224000    0.000000    0.000000
C      0.000000    0.000000    0.000000
N     -0.718000    0.000000    1.154000
H     -1.717000    0.061000    1.108000
C     -0.809000   -0.010000   -1.276000
C     -0.049000    0.046000    2.436000
H     -0.777000   -0.133000    3.221000
H      0.720000   -0.720000    2.476000
H      0.429000    1.010000    2.602000
H     -1.882000   -0.038000   -1.106000
H     -0.515000   -0.876000   -1.863000
H     -0.559000    0.879000   -1.850000
C      4.524000   -2.829200   -2.698500
C      4.712000   -1.540100   -2.200200
C      5.766700   -0.830600   -2.741400
C      6.529200   -1.466100   -3.720200
Br     3.111100   -3.881600   -2.025600
N      5.274500   -3.402800   -3.635300
N      6.295900   -2.707800   -4.155400
H      4.063600   -1.136100   -1.437600
H      5.995700    0.176200   -2.422600
H      7.370000   -0.974500   -4.189600
