22

O      1.224000    0.000000    0.000000
C      0.000000    0.000000    0.000000
N     -0.718000    0.000000    1.154000
H     -1.717000    0.061000    1.108000
C     -0.809000   -0.010000   -1.276000
C     -0.049000    0.046000    2.436000
H     -0.777000   -0.133000    3.221000
H      0.720000   -0.720000    2.476000
H      0.429000    1.010000    2.602000
H     -1.882000   -0.038000   -1.106000
H     -0.515000   -0.876000   -1.863000
H     -0.559000    0.879000   -1.850000
C     -0.983100    4.310700   -2.759000
C      0.009200    5.241600   -3.065900
C      0.231200    5.467500   -4.410600
C     -0.549400    4.751100   -5.316500
Br    -1.364100    3.929900   -0.951700
N     -1.709000    3.645300   -3.653700
N     -1.487500    3.870100   -4.956400
H      0.561300    5.746300   -2.287600
H      0.978300    6.169800   -4.751700
H     -0.433100    4.874500   -6.384300
