22

O      1.224000    0.000000    0.000000
C      0.000000    0.000000    0.000000
N     -0.718000    0.000000    1.154000
H     -1.717000    0.061000    1.108000
C     -0.809000   -0.010000   -1.276000
C     -0.049000    0.046000    2.436000
H     -0.777000   -0.133000    3.221000
H      0.720000   -0.720000    2.476000
H      0.429000    1.010000    2.602000
H     -1.882000   -0.038000   -1.106000
H     -0.515000   -0.876000   -1.863000
H     -0.559000    0.879000   -1.850000
C     -0.609600   -4.620100   -2.938300
C     -0.892300   -5.158600   -4.193500
C     -0.220200   -6.321200   -4.517800
C      0.663300   -6.834600   -3.569500
Br    -1.474700   -3.033500   -2.398800
N      0.242000   -5.140100   -2.058300
N      0.890200   -6.268300   -2.380500
H     -1.596400   -4.683300   -4.859400
H     -0.369500   -6.816600   -5.466500
H      1.224800   -7.740400   -3.751700
