22

O      1.224000    0.000000    0.000000
C      0.000000    0.000000    0.000000
N     -0.718000    0.000000    1.154000
H     -1.717000    0.061000    1.108000
C     -0.809000   -0.010000   -1.276000
C     -0.049000    0.046000    2.436000
H     -0.777000   -0.133000    3.221000
H      0.720000   -0.720000    2.476000
H      0.429000    1.010000    2.602000
H     -1.882000   -0.038000   -1.106000
H     -0.515000   -0.876000   -1.863000
H     -0.559000    0.879000   -1.850000
C      0.985700   -4.325700   -3.236600
C     -0.127800   -3.514200   -3.453500
C     -0.778600   -3.690400   -4.659300
C     -0.263800   -4.650300   -5.529200
Br     1.945000   -4.163600   -1.621000
N      1.448000   -5.232900   -4.092900
N      0.811000   -5.397800   -5.260700
H     -0.448600   -2.796800   -2.713500
H     -1.651500   -3.110400   -4.922500
H     -0.719000   -4.844500   -6.490500
