22

O      1.224000    0.000000    0.000000
C      0.000000    0.000000    0.000000
N     -0.718000    0.000000    1.154000
H     -1.717000    0.061000    1.108000
C     -0.809000   -0.010000   -1.276000
C     -0.049000    0.046000    2.436000
H     -0.777000   -0.133000    3.221000
H      0.720000   -0.720000    2.476000
H      0.429000    1.010000    2.602000
H     -1.882000   -0.038000   -1.106000
H     -0.515000   -0.876000   -1.863000
H     -0.559000    0.879000   -1.850000
C      4.060400   -0.622000   -2.301700
C      3.562200   -0.502400   -1.004400
C      3.254400   -1.686800   -0.363400
C      3.469800   -2.870000   -1.068500
Br     4.511700    0.935700   -3.264200
N      4.252600   -1.771800   -2.942900
N      3.951500   -2.916600   -2.314100
H      3.431100    0.464900   -0.543600
H      2.862400   -1.701300    0.643500
H      3.252600   -3.835300   -0.632800
