22

O      1.224000    0.000000    0.000000
C      0.000000    0.000000    0.000000
N     -0.718000    0.000000    1.154000
H     -1.717000    0.061000    1.108000
C     -0.809000   -0.010000   -1.276000
C     -0.049000    0.046000    2.436000
H     -0.777000   -0.133000    3.221000
H      0.720000   -0.720000    2.476000
H      0.429000    1.010000    2.602000
H     -1.882000   -0.038000   -1.106000
H     -0.515000   -0.876000   -1.863000
H     -0.559000    0.879000   -1.850000
C      4.506300   -0.229700    3.441600
C      3.663100   -0.486900    4.522400
C      4.142400   -1.376000    5.464900
C      5.406300   -1.921300    5.244800
Br     3.945700    0.970000    2.098800
N      5.708900   -0.770800    3.265500
N      6.166800   -1.632500    4.184500
H      2.697200   -0.011700    4.602500
H      3.565200   -1.641400    6.339100
H      5.847600   -2.623800    5.938000
