22

O      1.224000    0.000000    0.000000
C      0.000000    0.000000    0.000000
N     -0.718000    0.000000    1.154000
H     -1.717000    0.061000    1.108000
C     -0.809000   -0.010000   -1.276000
C     -0.049000    0.046000    2.436000
H     -0.777000   -0.133000    3.221000
H      0.720000   -0.720000    2.476000
H      0.429000    1.010000    2.602000
H     -1.882000   -0.038000   -1.106000
H     -0.515000   -0.876000   -1.863000
H     -0.559000    0.879000   -1.850000
C      1.406100    1.520100   -4.580400
C      2.399300    2.207700   -5.277700
C      2.438700    3.574700   -5.082700
C      1.493100    4.124800   -4.218700
Br     1.266700   -0.350300   -4.777400
N      0.519300    2.081200   -3.762600
N      0.564200    3.408200   -3.578800
H      3.087700    1.687900   -5.926600
H      3.170600    4.197100   -5.577400
H      1.461700    5.186400   -4.016600
