22

O      1.224000    0.000000    0.000000
C      0.000000    0.000000    0.000000
N     -0.718000    0.000000    1.154000
H     -1.717000    0.061000    1.108000
C     -0.809000   -0.010000   -1.276000
C     -0.049000    0.046000    2.436000
H     -0.777000   -0.133000    3.221000
H      0.720000   -0.720000    2.476000
H      0.429000    1.010000    2.602000
H     -1.882000   -0.038000   -1.106000
H     -0.515000   -0.876000   -1.863000
H     -0.559000    0.879000   -1.850000
C      3.850600   -2.346000   -0.709300
C      3.824800   -1.055200   -1.237200
C      4.363800   -0.907800   -2.500600
C      4.874000   -2.050300   -3.115200
Br     3.139200   -2.654400    1.009800
N      4.347400   -3.414100   -1.327700
N      4.868600   -3.262800   -2.553300
H      3.405200   -0.232000   -0.679100
H      4.391300    0.051800   -2.996800
H      5.311500   -2.013300   -4.103100
