22

O      1.224000    0.000000    0.000000
C      0.000000    0.000000    0.000000
N     -0.718000    0.000000    1.154000
H     -1.717000    0.061000    1.108000
C     -0.809000   -0.010000   -1.276000
C     -0.049000    0.046000    2.436000
H     -0.777000   -0.133000    3.221000
H      0.720000   -0.720000    2.476000
H      0.429000    1.010000    2.602000
H     -1.882000   -0.038000   -1.106000
H     -0.515000   -0.876000   -1.863000
H     -0.559000    0.879000   -1.850000
C      3.267000    3.234500   -4.137200
C      3.594500    1.933500   -4.518600
C      3.793000    1.731700   -5.870700
C      3.648000    2.835400   -6.709800
Br     2.975400    3.615800   -2.313400
N      3.137200    4.264500   -4.969300
N      3.331400    4.060500   -6.279800
H      3.683600    1.143300   -3.788600
H      4.050400    0.760000   -6.267200
H      3.787600    2.755200   -7.778900
