22

O      1.224000    0.000000    0.000000
C      0.000000    0.000000    0.000000
N     -0.718000    0.000000    1.154000
H     -1.717000    0.061000    1.108000
C     -0.809000   -0.010000   -1.276000
C     -0.049000    0.046000    2.436000
H     -0.777000   -0.133000    3.221000
H      0.720000   -0.720000    2.476000
H      0.429000    1.010000    2.602000
H     -1.882000   -0.038000   -1.106000
H     -0.515000   -0.876000   -1.863000
H     -0.559000    0.879000   -1.850000
C     -1.009800    1.763900   -3.344200
C     -0.032600    2.487300   -4.027700
C     -0.001100    3.845800   -3.778400
C     -0.938000    4.352600   -2.879200
Br    -1.137300   -0.098200   -3.614200
N     -1.888700    2.284200   -2.491500
N     -1.851500    3.603100   -2.255100
H      0.650100    1.999900   -4.707000
H      0.718400    4.493700   -4.258300
H     -0.974700    5.405000   -2.634100
