22

O      1.224000    0.000000    0.000000
C      0.000000    0.000000    0.000000
N     -0.718000    0.000000    1.154000
H     -1.717000    0.061000    1.108000
C     -0.809000   -0.010000   -1.276000
C     -0.049000    0.046000    2.436000
H     -0.777000   -0.133000    3.221000
H      0.720000   -0.720000    2.476000
H      0.429000    1.010000    2.602000
H     -1.882000   -0.038000   -1.106000
H     -0.515000   -0.876000   -1.863000
H     -0.559000    0.879000   -1.850000
C      4.915500    2.563900    0.241400
C      4.328800    3.637200    0.911600
C      5.192300    4.625300    1.343400
C      6.548400    4.453600    1.069600
Br     3.823600    1.161500   -0.389100
N      6.217200    2.434800   -0.001700
N      7.048500    3.397900    0.420500
H      3.262600    3.678100    1.074900
H      4.836500    5.497900    1.872300
H      7.284100    5.184200    1.376000
