22

O      1.224000    0.000000    0.000000
C      0.000000    0.000000    0.000000
N     -0.718000    0.000000    1.154000
H     -1.717000    0.061000    1.108000
C     -0.809000   -0.010000   -1.276000
C     -0.049000    0.046000    2.436000
H     -0.777000   -0.133000    3.221000
H      0.720000   -0.720000    2.476000
H      0.429000    1.010000    2.602000
H     -1.882000   -0.038000   -1.106000
H     -0.515000   -0.876000   -1.863000
H     -0.559000    0.879000   -1.850000
C      1.531100    4.090800   -3.483400
C      1.024100    5.311600   -3.038500
C      1.760700    6.430900   -3.374800
C      2.923900    6.231400   -4.116700
Br     0.600300    2.501800   -3.077100
N      2.647600    3.940000   -4.191200
N      3.356600    5.030900   -4.513500
H      0.109800    5.361500   -2.466800
H      1.452400    7.423000   -3.077500
H      3.551900    7.058700   -4.417100
