22

O      1.224000    0.000000    0.000000
C      0.000000    0.000000    0.000000
N     -0.718000    0.000000    1.154000
H     -1.717000    0.061000    1.108000
C     -0.809000   -0.010000   -1.276000
C     -0.049000    0.046000    2.436000
H     -0.777000   -0.133000    3.221000
H      0.720000   -0.720000    2.476000
H      0.429000    1.010000    2.602000
H     -1.882000   -0.038000   -1.106000
H     -0.515000   -0.876000   -1.863000
H     -0.559000    0.879000   -1.850000
C      5.694000   -2.005700    4.621500
C      5.983700   -0.969900    5.509500
C      7.076200   -1.166400    6.331800
C      7.772500   -2.366300    6.194000
Br     4.222000   -1.836300    3.454800
N      6.383400   -3.138900    4.518800
N      7.442200   -3.322000    5.320200
H      5.380600   -0.075200    5.539800
H      7.383100   -0.423600    7.054200
H      8.637500   -2.591200    6.802300
