22

O      1.224000    0.000000    0.000000
C      0.000000    0.000000    0.000000
N     -0.718000    0.000000    1.154000
H     -1.717000    0.061000    1.108000
C     -0.809000   -0.010000   -1.276000
C     -0.049000    0.046000    2.436000
H     -0.777000   -0.133000    3.221000
H      0.720000   -0.720000    2.476000
H      0.429000    1.010000    2.602000
H     -1.882000   -0.038000   -1.106000
H     -0.515000   -0.876000   -1.863000
H     -0.559000    0.879000   -1.850000
C      4.838200    4.560300   -1.422200
C      3.816400    5.355400   -0.903400
C      3.930200    6.712700   -1.134100
C      5.041800    7.147800   -1.854000
Br     4.777200    2.693400   -1.162200
N      5.885900    5.013100   -2.105800
N      5.989000    6.331400   -2.325500
H      2.993300    4.920600   -0.356900
H      3.190500    7.413100   -0.773500
H      5.198900    8.194600   -2.073700
