22

O      1.224000    0.000000    0.000000
C      0.000000    0.000000    0.000000
N     -0.718000    0.000000    1.154000
H     -1.717000    0.061000    1.108000
C     -0.809000   -0.010000   -1.276000
C     -0.049000    0.046000    2.436000
H     -0.777000   -0.133000    3.221000
H      0.720000   -0.720000    2.476000
H      0.429000    1.010000    2.602000
H     -1.882000   -0.038000   -1.106000
H     -0.515000   -0.876000   -1.863000
H     -0.559000    0.879000   -1.850000
C      5.792800   -1.331700    4.665700
C      6.930200   -1.677300    3.936100
C      7.991400   -2.172200    4.669100
C      7.822100   -2.275800    6.049000
Br     4.287900   -0.646100    3.759100
N      5.668400   -1.445100    5.985400
N      6.702600   -1.926200    6.689500
H      6.962900   -1.559000    2.863700
H      8.917300   -2.468400    4.197200
H      8.607700   -2.654000    6.688200
