22

O      1.224000    0.000000    0.000000
C      0.000000    0.000000    0.000000
N     -0.718000    0.000000    1.154000
H     -1.717000    0.061000    1.108000
C     -0.809000   -0.010000   -1.276000
C     -0.049000    0.046000    2.436000
H     -0.777000   -0.133000    3.221000
H      0.720000   -0.720000    2.476000
H      0.429000    1.010000    2.602000
H     -1.882000   -0.038000   -1.106000
H     -0.515000   -0.876000   -1.863000
H     -0.559000    0.879000   -1.850000
C      1.879500   -2.964200    3.466800
C      2.327400   -3.958600    4.336200
C      2.387300   -5.236200    3.813900
C      1.998600   -5.402600    2.485600
Br     1.761000   -1.185400    4.082000
N      1.516500   -3.162100    2.202200
N      1.577400   -4.404600    1.703000
H      2.606600   -3.727200    5.352900
H      2.721000   -6.075900    4.406600
H      2.018500   -6.372300    2.007800
