22

O      1.224000    0.000000    0.000000
C      0.000000    0.000000    0.000000
N     -0.718000    0.000000    1.154000
H     -1.717000    0.061000    1.108000
C     -0.809000   -0.010000   -1.276000
C     -0.049000    0.046000    2.436000
H     -0.777000   -0.133000    3.221000
H      0.720000   -0.720000    2.476000
H      0.429000    1.010000    2.602000
H     -1.882000   -0.038000   -1.106000
H     -0.515000   -0.876000   -1.863000
H     -0.559000    0.879000   -1.850000
C     -0.195200    4.809500   -3.365300
C      0.108300    4.799800   -4.726600
C     -0.062400    5.998100   -5.392600
C     -0.515600    7.085100   -4.646700
Br     0.004200    3.223800   -2.364100
N     -0.626400    5.869400   -2.686500
N     -0.789400    7.028400   -3.339900
H      0.454500    3.901700   -5.215200
H      0.145500    6.094500   -6.448700
H     -0.672900    8.054700   -5.098400
