22

O      1.224000    0.000000    0.000000
C      0.000000    0.000000    0.000000
N     -0.718000    0.000000    1.154000
H     -1.717000    0.061000    1.108000
C     -0.809000   -0.010000   -1.276000
C     -0.049000    0.046000    2.436000
H     -0.777000   -0.133000    3.221000
H      0.720000   -0.720000    2.476000
H      0.429000    1.010000    2.602000
H     -1.882000   -0.038000   -1.106000
H     -0.515000   -0.876000   -1.863000
H     -0.559000    0.879000   -1.850000
C     -0.653600    3.704000   -0.991900
C     -1.252500    3.433900   -2.222300
C     -2.610400    3.675700   -2.299800
C     -3.239900    4.159900   -1.154100
Br     1.196900    3.407500   -0.781400
N     -1.289100    4.166600    0.081500
N     -2.606600    4.398600   -0.001800
H     -0.675300    3.058900   -3.053900
H     -3.166900    3.498400   -3.209000
H     -4.299800    4.372600   -1.138300
