22

O      1.224000    0.000000    0.000000
C      0.000000    0.000000    0.000000
N     -0.718000    0.000000    1.154000
H     -1.717000    0.061000    1.108000
C     -0.809000   -0.010000   -1.276000
C     -0.049000    0.046000    2.436000
H     -0.777000   -0.133000    3.221000
H      0.720000   -0.720000    2.476000
H      0.429000    1.010000    2.602000
H     -1.882000   -0.038000   -1.106000
H     -0.515000   -0.876000   -1.863000
H     -0.559000    0.879000   -1.850000
C      1.750200   -4.416400   -0.542600
C      1.954800   -3.739200   -1.744700
C      2.891800   -4.290400   -2.597200
C      3.532200   -5.454900   -2.176400
Br     0.491700   -3.746100    0.691600
N      2.382200   -5.528000   -0.175200
N      3.289900   -6.056600   -1.007900
H      1.405800   -2.839900   -1.979400
H      3.122700   -3.841200   -3.552500
H      4.276800   -5.943700   -2.789100
