22

O      1.224000    0.000000    0.000000
C      0.000000    0.000000    0.000000
N     -0.718000    0.000000    1.154000
H     -1.717000    0.061000    1.108000
C     -0.809000   -0.010000   -1.276000
C     -0.049000    0.046000    2.436000
H     -0.777000   -0.133000    3.221000
H      0.720000   -0.720000    2.476000
H      0.429000    1.010000    2.602000
H     -1.882000   -0.038000   -1.106000
H     -0.515000   -0.876000   -1.863000
H     -0.559000    0.879000   -1.850000
C     -0.524700   -4.052900    3.769600
C     -0.309600   -5.372200    4.168000
C     -1.085300   -5.820200    5.219700
C     -1.995200   -4.919900    5.771800
Br     0.483500   -3.344000    2.342200
N     -1.404500   -3.222000    4.322500
N     -2.153300   -3.664300    5.342400
H      0.422600   -5.992400    3.673800
H     -0.994500   -6.826600    5.602700
H     -2.636200   -5.198100    6.596900
