22

O      1.224000    0.000000    0.000000
C      0.000000    0.000000    0.000000
N     -0.718000    0.000000    1.154000
H     -1.717000    0.061000    1.108000
C     -0.809000   -0.010000   -1.276000
C     -0.049000    0.046000    2.436000
H     -0.777000   -0.133000    3.221000
H      0.720000   -0.720000    2.476000
H      0.429000    1.010000    2.602000
H     -1.882000   -0.038000   -1.106000
H     -0.515000   -0.876000   -1.863000
H     -0.559000    0.879000   -1.850000
C      0.742700    3.254200   -2.810700
C      0.557100    3.577300   -4.154800
C      0.158400    4.874000   -4.415400
C     -0.016900    5.720900   -3.322000
Br     1.287000    1.508900   -2.347800
N      0.565100    4.091800   -1.792400
N      0.178100    5.348200   -2.053600
H      0.719600    2.846400   -4.932400
H     -0.012200    5.223000   -5.423800
H     -0.327500    6.748900   -3.447100
