22

O      1.224000    0.000000    0.000000
C      0.000000    0.000000    0.000000
N     -0.718000    0.000000    1.154000
H     -1.717000    0.061000    1.108000
C     -0.809000   -0.010000   -1.276000
C     -0.049000    0.046000    2.436000
H     -0.777000   -0.133000    3.221000
H      0.720000   -0.720000    2.476000
H      0.429000    1.010000    2.602000
H     -1.882000   -0.038000   -1.106000
H     -0.515000   -0.876000   -1.863000
H     -0.559000    0.879000   -1.850000
C     -0.202700   -3.728300   -4.556400
C     -0.303800   -3.444300   -5.918300
C     -0.625800   -4.510200   -6.735900
C     -0.815600   -5.749300   -6.125900
Br     0.232600   -2.341900   -3.354400
N     -0.391400   -4.926700   -4.010200
N     -0.703600   -5.955800   -4.810300
H     -0.137300   -2.446300   -6.294400
H     -0.727800   -4.393900   -7.805400
H     -1.069600   -6.629300   -6.700200
