22

O      1.224000    0.000000    0.000000
C      0.000000    0.000000    0.000000
N     -0.718000    0.000000    1.154000
H     -1.717000    0.061000    1.108000
C     -0.809000   -0.010000   -1.276000
C     -0.049000    0.046000    2.436000
H     -0.777000   -0.133000    3.221000
H      0.720000   -0.720000    2.476000
H      0.429000    1.010000    2.602000
H     -1.882000   -0.038000   -1.106000
H     -0.515000   -0.876000   -1.863000
H     -0.559000    0.879000   -1.850000
C      1.622200   -3.931100    0.002500
C      2.907100   -4.440700   -0.183600
C      3.083400   -5.770900    0.145200
C      1.972700   -6.463500    0.624600
Br     1.276100   -2.125200   -0.416500
N      0.584800   -4.624900    0.463400
N      0.764000   -5.915000    0.780200
H      3.704700   -3.819800   -0.562600
H      4.041200   -6.259600    0.037000
H      2.033300   -7.506600    0.902300
