22

O      1.224000    0.000000    0.000000
C      0.000000    0.000000    0.000000
N     -0.718000    0.000000    1.154000
H     -1.717000    0.061000    1.108000
C     -0.809000   -0.010000   -1.276000
C     -0.049000    0.046000    2.436000
H     -0.777000   -0.133000    3.221000
H      0.720000   -0.720000    2.476000
H      0.429000    1.010000    2.602000
H     -1.882000   -0.038000   -1.106000
H     -0.515000   -0.876000   -1.863000
H     -0.559000    0.879000   -1.850000
C      3.961300   -4.517300   -3.350000
C      5.340700   -4.337500   -3.451900
C      5.959700   -4.990300   -4.500200
C      5.153700   -5.755000   -5.342300
Br     3.020700   -3.668600   -1.953000
N      3.224500   -5.256700   -4.175000
N      3.832600   -5.887000   -5.189700
H      5.877200   -3.722000   -2.745900
H      7.024900   -4.914800   -4.665500
H      5.566300   -6.294400   -6.183500
