22

O      1.224000    0.000000    0.000000
C      0.000000    0.000000    0.000000
N     -0.718000    0.000000    1.154000
H     -1.717000    0.061000    1.108000
C     -0.809000   -0.010000   -1.276000
C     -0.049000    0.046000    2.436000
H     -0.777000   -0.133000    3.221000
H      0.720000   -0.720000    2.476000
H      0.429000    1.010000    2.602000
H     -1.882000   -0.038000   -1.106000
H     -0.515000   -0.876000   -1.863000
H     -0.559000    0.879000   -1.850000
C      0.467400    3.130700   -1.482400
C      0.648100    4.297700   -2.224500
C      0.788100    5.462500   -1.495000
C      0.735400    5.357000   -0.105900
Br     0.266200    1.486100   -2.383200
N      0.422400    3.069600   -0.154100
N      0.559000    4.204100    0.546500
H      0.674600    4.274900   -3.303400
H      0.932700    6.419100   -1.976300
H      0.837000    6.224500    0.531300
