22

O      1.224000    0.000000    0.000000
C      0.000000    0.000000    0.000000
N     -0.718000    0.000000    1.154000
H     -1.717000    0.061000    1.108000
C     -0.809000   -0.010000   -1.276000
C     -0.049000    0.046000    2.436000
H     -0.777000   -0.133000    3.221000
H      0.720000   -0.720000    2.476000
H      0.429000    1.010000    2.602000
H     -1.882000   -0.038000   -1.106000
H     -0.515000   -0.876000   -1.863000
H     -0.559000    0.879000   -1.850000
C      2.977400   -3.580000    0.479400
C      3.548400   -3.579600    1.751900
C      4.152100   -4.758600    2.144100
C      4.130800   -5.819300    1.239700
Br     2.128000   -2.018900   -0.151500
N      2.977100   -4.614600   -0.357200
N      3.564900   -5.755000    0.030800
H      3.512100   -2.702400    2.379900
H      4.623100   -4.860100    3.111400
H      4.582600   -6.772800    1.475700
