22

O      1.224000    0.000000    0.000000
C      0.000000    0.000000    0.000000
N     -0.718000    0.000000    1.154000
H     -1.717000    0.061000    1.108000
C     -0.809000   -0.010000   -1.276000
C     -0.049000    0.046000    2.436000
H     -0.777000   -0.133000    3.221000
H      0.720000   -0.720000    2.476000
H      0.429000    1.010000    2.602000
H     -1.882000   -0.038000   -1.106000
H     -0.515000   -0.876000   -1.863000
H     -0.559000    0.879000   -1.850000
C      0.758800   -4.679000   -2.687200
C     -0.224900   -5.662400   -2.584500
C     -0.383000   -6.477100   -3.688900
C      0.446700   -6.238300   -4.783400
Br     1.054400   -3.514000   -1.233900
N      1.532900   -4.481300   -3.751100
N      1.373300   -5.276000   -4.818600
H     -0.818400   -5.767200   -1.688900
H     -1.118300   -7.268800   -3.708900
H      0.381600   -6.834400   -5.683000
