22

O      1.224000    0.000000    0.000000
C      0.000000    0.000000    0.000000
N     -0.718000    0.000000    1.154000
H     -1.717000    0.061000    1.108000
C     -0.809000   -0.010000   -1.276000
C     -0.049000    0.046000    2.436000
H     -0.777000   -0.133000    3.221000
H      0.720000   -0.720000    2.476000
H      0.429000    1.010000    2.602000
H     -1.882000   -0.038000   -1.106000
H     -0.515000   -0.876000   -1.863000
H     -0.559000    0.879000   -1.850000
C      5.431500    1.045100    1.138000
C      4.548800    1.630400    0.230400
C      4.418000    3.003100    0.313800
C      5.172300    3.659300    1.285300
Br     5.682100   -0.823800    1.107200
N      6.135600    1.706100    2.053100
N      6.003100    3.037900    2.127600
H      4.008200    1.032500   -0.487500
H      3.759300    3.551000   -0.344700
H      5.122800    4.732000    1.410600
