22

O      1.224000    0.000000    0.000000
C      0.000000    0.000000    0.000000
N     -0.718000    0.000000    1.154000
H     -1.717000    0.061000    1.108000
C     -0.809000   -0.010000   -1.276000
C     -0.049000    0.046000    2.436000
H     -0.777000   -0.133000    3.221000
H      0.720000   -0.720000    2.476000
H      0.429000    1.010000    2.602000
H     -1.882000   -0.038000   -1.106000
H     -0.515000   -0.876000   -1.863000
H     -0.559000    0.879000   -1.850000
C      3.193900    1.097100    2.392300
C      3.737100    0.660800    1.183900
C      3.859200   -0.707100    1.034900
C      3.432600   -1.506200    2.094500
Br     2.984500    2.946600    2.695600
N      2.797200    0.302000    3.382500
N      2.919100   -1.024100    3.230200
H      4.038700    1.362900    0.421500
H      4.268200   -1.145200    0.135700
H      3.496800   -2.584600    2.051000
