22

O      1.224000    0.000000    0.000000
C      0.000000    0.000000    0.000000
N     -0.718000    0.000000    1.154000
H     -1.717000    0.061000    1.108000
C     -0.809000   -0.010000   -1.276000
C     -0.049000    0.046000    2.436000
H     -0.777000   -0.133000    3.221000
H      0.720000   -0.720000    2.476000
H      0.429000    1.010000    2.602000
H     -1.882000   -0.038000   -1.106000
H     -0.515000   -0.876000   -1.863000
H     -0.559000    0.879000   -1.850000
C      5.616200    0.102400   -2.327200
C      4.567500    0.861200   -2.846700
C      4.926200    2.038000   -3.475000
C      6.284600    2.346700   -3.526800
Br     5.233200   -1.522400   -1.449700
N      6.903600    0.430600   -2.396300
N      7.243500    1.574100   -3.007600
H      3.542800    0.534300   -2.754900
H      4.187900    2.696200   -3.910300
H      6.641600    3.250000   -4.001700
