22

O      1.224000    0.000000    0.000000
C      0.000000    0.000000    0.000000
N     -0.718000    0.000000    1.154000
H     -1.717000    0.061000    1.108000
C     -0.809000   -0.010000   -1.276000
C     -0.049000    0.046000    2.436000
H     -0.777000   -0.133000    3.221000
H      0.720000   -0.720000    2.476000
H      0.429000    1.010000    2.602000
H     -1.882000   -0.038000   -1.106000
H     -0.515000   -0.876000   -1.863000
H     -0.559000    0.879000   -1.850000
C      2.387100    2.480100    4.687600
C      1.607300    2.976100    5.732300
C      2.276100    3.245600    6.910600
C      3.647700    2.998100    6.938200
Br     1.570000    2.079700    3.035700
N      3.697000    2.256500    4.751900
N      4.338600    2.520600    5.898700
H      0.546400    3.134000    5.610900
H      1.761900    3.632700    7.778600
H      4.238200    3.184500    7.824500
