22

O      1.224000    0.000000    0.000000
C      0.000000    0.000000    0.000000
N     -0.718000    0.000000    1.154000
H     -1.717000    0.061000    1.108000
C     -0.809000   -0.010000   -1.276000
C     -0.049000    0.046000    2.436000
H     -0.777000   -0.133000    3.221000
H      0.720000   -0.720000    2.476000
H      0.429000    1.010000    2.602000
H     -1.882000   -0.038000   -1.106000
H     -0.515000   -0.876000   -1.863000
H     -0.559000    0.879000   -1.850000
C     -1.274600   -2.127600    4.726700
C     -1.001800   -3.204000    5.570700
C     -1.907100   -4.246800    5.532500
C     -2.990600   -4.121200    4.664400
Br    -0.099900   -0.652400    4.703300
N     -2.321700   -2.043600    3.910200
N     -3.195500   -3.059600    3.879000
H     -0.131400   -3.206300    6.209100
H     -1.785100   -5.126400    6.148300
H     -3.740000   -4.895800    4.579700
