22

O      1.224000    0.000000    0.000000
C      0.000000    0.000000    0.000000
N     -0.718000    0.000000    1.154000
H     -1.717000    0.061000    1.108000
C     -0.809000   -0.010000   -1.276000
C     -0.049000    0.046000    2.436000
H     -0.777000   -0.133000    3.221000
H      0.720000   -0.720000    2.476000
H      0.429000    1.010000    2.602000
H     -1.882000   -0.038000   -1.106000
H     -0.515000   -0.876000   -1.863000
H     -0.559000    0.879000   -1.850000
C     -1.517800   -2.831100    0.547300
C     -0.540000   -3.049500    1.517700
C      0.588300   -3.726800    1.097300
C      0.636900   -4.120000   -0.239300
Br    -3.097500   -1.915200    1.018800
N     -1.435300   -3.222500   -0.721600
N     -0.337300   -3.879000   -1.121700
H     -0.672500   -2.703700    2.531600
H      1.402900   -3.945500    1.772800
H      1.487000   -4.653700   -0.641100
