22

O      1.224000    0.000000    0.000000
C      0.000000    0.000000    0.000000
N     -0.718000    0.000000    1.154000
H     -1.717000    0.061000    1.108000
C     -0.809000   -0.010000   -1.276000
C     -0.049000    0.046000    2.436000
H     -0.777000   -0.133000    3.221000
H      0.720000   -0.720000    2.476000
H      0.429000    1.010000    2.602000
H     -1.882000   -0.038000   -1.106000
H     -0.515000   -0.876000   -1.863000
H     -0.559000    0.879000   -1.850000
C      0.508500   -1.891600    3.875400
C     -0.013100   -0.962600    4.775600
C     -1.368800   -0.717200    4.673500
C     -2.072500   -1.414200    3.692600
Br     2.349200   -2.298000    3.931500
N     -0.196600   -2.538200    2.950800
N     -1.511500   -2.294500    2.858200
H      0.618100   -0.473700    5.502000
H     -1.868400   -0.014600    5.325100
H     -3.135500   -1.275000    3.552700
