22

O      1.224000    0.000000    0.000000
C      0.000000    0.000000    0.000000
N     -0.718000    0.000000    1.154000
H     -1.717000    0.061000    1.108000
C     -0.809000   -0.010000   -1.276000
C     -0.049000    0.046000    2.436000
H     -0.777000   -0.133000    3.221000
H      0.720000   -0.720000    2.476000
H      0.429000    1.010000    2.602000
H     -1.882000   -0.038000   -1.106000
H     -0.515000   -0.876000   -1.863000
H     -0.559000    0.879000   -1.850000
C     -1.591300    3.337900   -1.636600
C     -2.413000    4.398900   -2.016800
C     -3.527200    4.613100   -1.228700
C     -3.717400    3.757700   -0.144600
Br    -0.043900    2.961200   -2.646700
N     -1.806200    2.541500   -0.592700
N     -2.889600    2.755900    0.167000
H     -2.178200    5.006300   -2.877700
H     -4.226200    5.409800   -1.439600
H     -4.566100    3.863300    0.516900
