22

O      1.224000    0.000000    0.000000
C      0.000000    0.000000    0.000000
N     -0.718000    0.000000    1.154000
H     -1.717000    0.061000    1.108000
C     -0.809000   -0.010000   -1.276000
C     -0.049000    0.046000    2.436000
H     -0.777000   -0.133000    3.221000
H      0.720000   -0.720000    2.476000
H      0.429000    1.010000    2.602000
H     -1.882000   -0.038000   -1.106000
H     -0.515000   -0.876000   -1.863000
H     -0.559000    0.879000   -1.850000
C      2.140300    3.056900    2.717700
C      1.391400    2.629300    1.621500
C      0.341200    3.446800    1.250900
C      0.136600    4.604100    2.000500
Br     3.596500    2.012100    3.304600
N      1.913900    4.170500    3.409700
N      0.893000    4.958200    3.043800
H      1.631300    1.712400    1.104800
H     -0.298700    3.203700    0.414700
H     -0.664900    5.292400    1.770700
