22

O      1.224000    0.000000    0.000000
C      0.000000    0.000000    0.000000
N     -0.718000    0.000000    1.154000
H     -1.717000    0.061000    1.108000
C     -0.809000   -0.010000   -1.276000
C     -0.049000    0.046000    2.436000
H     -0.777000   -0.133000    3.221000
H      0.720000   -0.720000    2.476000
H      0.429000    1.010000    2.602000
H     -1.882000   -0.038000   -1.106000
H     -0.515000   -0.876000   -1.863000
H     -0.559000    0.879000   -1.850000
C     -1.666100    3.747800   -3.268900
C     -2.483500    3.250600   -2.254000
C     -3.838600    3.472100   -2.405900
C     -4.249700    4.162400   -3.545100
Br     0.199800    3.498100   -3.156800
N     -2.096400    4.403300   -4.343800
N     -3.412700    4.614200   -4.483800
H     -2.066400    2.726500   -1.407500
H     -4.555100    3.126500   -1.674500
H     -5.293300    4.373300   -3.732700
