22

O      1.224000    0.000000    0.000000
C      0.000000    0.000000    0.000000
N     -0.718000    0.000000    1.154000
H     -1.717000    0.061000    1.108000
C     -0.809000   -0.010000   -1.276000
C     -0.049000    0.046000    2.436000
H     -0.777000   -0.133000    3.221000
H      0.720000   -0.720000    2.476000
H      0.429000    1.010000    2.602000
H     -1.882000   -0.038000   -1.106000
H     -0.515000   -0.876000   -1.863000
H     -0.559000    0.879000   -1.850000
C      0.599600   -3.276000    4.866400
C      0.649800   -4.585600    5.343800
C      0.273200   -4.763700    6.660900
C     -0.115100   -3.630400    7.373700
Br     1.093800   -2.925200    3.080500
N      0.222600   -2.217400    5.578700
N     -0.141300   -2.398600    6.855900
H      0.966200   -5.399500    4.709200
H      0.277600   -5.739700    7.124800
H     -0.422800   -3.691000    8.408300
