22

O      1.224000    0.000000    0.000000
C      0.000000    0.000000    0.000000
N     -0.718000    0.000000    1.154000
H     -1.717000    0.061000    1.108000
C     -0.809000   -0.010000   -1.276000
C     -0.049000    0.046000    2.436000
H     -0.777000   -0.133000    3.221000
H      0.720000   -0.720000    2.476000
H      0.429000    1.010000    2.602000
H     -1.882000   -0.038000   -1.106000
H     -0.515000   -0.876000   -1.863000
H     -0.559000    0.879000   -1.850000
C      0.623900   -0.279800   -4.864100
C      0.765100    0.189600   -6.169900
C      1.040200   -0.765600   -7.129300
C      1.148100   -2.088100   -6.702100
Br     0.247300    0.943700   -3.479300
N      0.734200   -1.553000   -4.494200
N      1.001200   -2.473800   -5.431000
H      0.662600    1.239200   -6.400100
H      1.167500   -0.503700   -8.170000
H      1.361500   -2.890500   -7.394700
