22

O      1.224000    0.000000    0.000000
C      0.000000    0.000000    0.000000
N     -0.718000    0.000000    1.154000
H     -1.717000    0.061000    1.108000
C     -0.809000   -0.010000   -1.276000
C     -0.049000    0.046000    2.436000
H     -0.777000   -0.133000    3.221000
H      0.720000   -0.720000    2.476000
H      0.429000    1.010000    2.602000
H     -1.882000   -0.038000   -1.106000
H     -0.515000   -0.876000   -1.863000
H     -0.559000    0.879000   -1.850000
C      2.329700    1.949000   -4.111400
C      1.439700    2.993800   -3.862900
C      0.415100    3.145500   -4.777100
C      0.373000    2.249900   -5.844600
Br     3.764300    1.656400   -2.922800
N      2.256700    1.112800   -5.143700
N      1.259600    1.266700   -6.026300
H      1.558500    3.636000   -3.003500
H     -0.326100    3.925000   -4.673800
H     -0.398800    2.306000   -6.599600
