22

O      1.224000    0.000000    0.000000
C      0.000000    0.000000    0.000000
N     -0.718000    0.000000    1.154000
H     -1.717000    0.061000    1.108000
C     -0.809000   -0.010000   -1.276000
C     -0.049000    0.046000    2.436000
H     -0.777000   -0.133000    3.221000
H      0.720000   -0.720000    2.476000
H      0.429000    1.010000    2.602000
H     -1.882000   -0.038000   -1.106000
H     -0.515000   -0.876000   -1.863000
H     -0.559000    0.879000   -1.850000
C      4.212000   -2.901500   -3.125000
C      3.300400   -2.811700   -4.176800
C      3.825800   -2.453800   -5.403300
C      5.198700   -2.220700   -5.467200
Br     3.596400   -3.383300   -1.408800
N      5.518500   -2.671000   -3.225000
N      6.020500   -2.324200   -4.418500
H      2.250800   -3.012900   -4.024800
H      3.202400   -2.357000   -6.280700
H      5.681600   -1.937000   -6.392000
