22

O      1.224000    0.000000    0.000000
C      0.000000    0.000000    0.000000
N     -0.718000    0.000000    1.154000
H     -1.717000    0.061000    1.108000
C     -0.809000   -0.010000   -1.276000
C     -0.049000    0.046000    2.436000
H     -0.777000   -0.133000    3.221000
H      0.720000   -0.720000    2.476000
H      0.429000    1.010000    2.602000
H     -1.882000   -0.038000   -1.106000
H     -0.515000   -0.876000   -1.863000
H     -0.559000    0.879000   -1.850000
C      2.181900   -1.747900   -3.651000
C      2.257600   -1.373900   -4.992600
C      2.654700   -2.360800   -5.873800
C      2.937100   -3.617700   -5.341100
Br     1.649400   -0.474000   -2.366400
N      2.460000   -2.960500   -3.179400
N      2.844700   -3.912600   -4.041000
H      2.016900   -0.369600   -5.306700
H      2.744500   -2.171600   -6.934000
H      3.253400   -4.439600   -5.968300
