22

O      1.224000    0.000000    0.000000
C      0.000000    0.000000    0.000000
N     -0.718000    0.000000    1.154000
H     -1.717000    0.061000    1.108000
C     -0.809000   -0.010000   -1.276000
C     -0.049000    0.046000    2.436000
H     -0.777000   -0.133000    3.221000
H      0.720000   -0.720000    2.476000
H      0.429000    1.010000    2.602000
H     -1.882000   -0.038000   -1.106000
H     -0.515000   -0.876000   -1.863000
H     -0.559000    0.879000   -1.850000
C     -1.723300   -1.130500    3.670200
C     -2.590000   -1.965300    2.964900
C     -3.753100   -1.379000    2.504700
C     -3.942900   -0.027200    2.787600
Br    -0.107200   -1.833600    4.341400
N     -1.939400    0.158100    3.920900
N     -3.070400    0.719600    3.471000
H     -2.351300   -3.004600    2.797400
H     -4.489300   -1.940700    1.947600
H     -4.828200    0.500100    2.460500
