22

O      1.224000    0.000000    0.000000
C      0.000000    0.000000    0.000000
N     -0.718000    0.000000    1.154000
H     -1.717000    0.061000    1.108000
C     -0.809000   -0.010000   -1.276000
C     -0.049000    0.046000    2.436000
H     -0.777000   -0.133000    3.221000
H      0.720000   -0.720000    2.476000
H      0.429000    1.010000    2.602000
H     -1.882000   -0.038000   -1.106000
H     -0.515000   -0.876000   -1.863000
H     -0.559000    0.879000   -1.850000
C      2.425000    2.847500    3.157800
C      3.272200    2.507100    2.103400
C      4.231000    3.444600    1.771400
C      4.256200    4.623900    2.514300
Br     1.081200    1.636000    3.689900
N      2.479900    3.985600    3.844700
N      3.413000    4.890100    3.516400
H      3.171500    1.563800    1.588300
H      4.935200    3.275800    0.969300
H      4.977500    5.403700    2.313000
