22

O      1.224000    0.000000    0.000000
C      0.000000    0.000000    0.000000
N     -0.718000    0.000000    1.154000
H     -1.717000    0.061000    1.108000
C     -0.809000   -0.010000   -1.276000
C     -0.049000    0.046000    2.436000
H     -0.777000   -0.133000    3.221000
H      0.720000   -0.720000    2.476000
H      0.429000    1.010000    2.602000
H     -1.882000   -0.038000   -1.106000
H     -0.515000   -0.876000   -1.863000
H     -0.559000    0.879000   -1.850000
C     -1.150100   -2.805200   -3.359000
C     -1.057400   -2.764300   -4.750100
C     -0.331700   -3.782300   -5.337900
C      0.229300   -4.738100   -4.492200
Br    -2.119100   -1.460900   -2.458800
N     -0.599600   -3.736000   -2.584000
N      0.103000   -4.720500   -3.162000
H     -1.530100   -1.977600   -5.318400
H     -0.201000   -3.840200   -6.409000
H      0.810200   -5.563900   -4.878800
