22

O      1.224000    0.000000    0.000000
C      0.000000    0.000000    0.000000
N     -0.718000    0.000000    1.154000
H     -1.717000    0.061000    1.108000
C     -0.809000   -0.010000   -1.276000
C     -0.049000    0.046000    2.436000
H     -0.777000   -0.133000    3.221000
H      0.720000   -0.720000    2.476000
H      0.429000    1.010000    2.602000
H     -1.882000   -0.038000   -1.106000
H     -0.515000   -0.876000   -1.863000
H     -0.559000    0.879000   -1.850000
C      2.052300    1.154700    3.280900
C      2.270500    0.134700    4.206900
C      2.961700   -0.966900    3.741100
C      3.367700   -0.950000    2.407600
Br     1.118000    2.702900    3.816400
N      2.456100    1.134700    2.013400
N      3.126200    0.062100    1.569100
H      1.914200    0.216900    5.222500
H      3.181500   -1.810200    4.380100
H      3.912700   -1.775900    1.971900
