22

O      1.224000    0.000000    0.000000
C      0.000000    0.000000    0.000000
N     -0.718000    0.000000    1.154000
H     -1.717000    0.061000    1.108000
C     -0.809000   -0.010000   -1.276000
C     -0.049000    0.046000    2.436000
H     -0.777000   -0.133000    3.221000
H      0.720000   -0.720000    2.476000
H      0.429000    1.010000    2.602000
H     -1.882000   -0.038000   -1.106000
H     -0.515000   -0.876000   -1.863000
H     -0.559000    0.879000   -1.850000
C     -1.583400    3.626800    1.344700
C     -2.704400    2.967900    0.840000
C     -3.865000    3.714200    0.773000
C     -3.801400    5.036000    1.211200
Br     0.051700    2.696600    1.477800
N     -1.561400    4.892500    1.754100
N     -2.691700    5.609900    1.685800
H     -2.651300    1.936800    0.525200
H     -4.787500    3.295300    0.397000
H     -4.668400    5.681400    1.189100
