3NGS_cutout
  PyMOL3.1          3D                             0

342327  0  0  0  0  0  0  0  0999 V2000
   -2.1360    5.2157    8.2298 H   0  0  0  0  0  0  0  0  0  0  0  0
   -3.8334    5.8018    6.4556 H   0  0  0  0  0  0  0  0  0  0  0  0
   -0.1373    2.2938    3.1034 H   0  0  0  0  0  0  0  0  0  0  0  0
    0.1180    2.8933    5.3274 H   0  0  0  0  0  0  0  0  0  0  0  0
   -4.2690   -4.2444   -5.0951 O   0  0  0  0  0  0  0  0  0  0  0  0
   -4.1090   -5.0944   -4.6951 H   0  0  0  0  0  0  0  0  0  0  0  0
   -5.1490   -4.3144   -5.4751 H   0  0  0  0  0  0  0  0  0  0  0  0
   -4.8890   -3.3444   -2.5051 O   0  0  0  0  0  0  0  0  0  0  0  0
   -4.2490   -2.6544   -2.3251 H   0  0  0  0  0  0  0  0  0  0  0  0
   -4.7690   -3.5444   -3.4351 H   0  0  0  0  0  0  0  0  0  0  0  0
   -3.3190   -1.4944   -6.7151 O   0  0  0  0  0  0  0  0  0  0  0  0
   -4.0790   -1.6944   -6.1551 H   0  0  0  0  0  0  0  0  0  0  0  0
   -3.6490   -1.5944   -7.6051 H   0  0  0  0  0  0  0  0  0  0  0  0
   -1.7190    0.3156   -5.4351 O   0  0  0  0  0  0  0  0  0  0  0  0
   -1.2990   -0.0444   -4.6551 H   0  0  0  0  0  0  0  0  0  0  0  0
   -2.2090   -0.4144   -5.8151 H   0  0  0  0  0  0  0  0  0  0  0  0
   -1.7490   -3.0944   -4.5051 O   0  0  0  0  0  0  0  0  0  0  0  0
   -1.1690   -2.7944   -5.2051 H   0  0  0  0  0  0  0  0  0  0  0  0
   -2.5090   -3.4544   -4.9651 H   0  0  0  0  0  0  0  0  0  0  0  0
   -5.8990    5.1656   -3.6151 O   0  0  0  0  0  0  0  0  0  0  0  0
   -6.0290    4.2256   -3.6651 H   0  0  0  0  0  0  0  0  0  0  0  0
   -4.9790    5.2956   -3.8351 H   0  0  0  0  0  0  0  0  0  0  0  0
   -3.2090    5.0756   -4.5951 O   0  0  0  0  0  0  0  0  0  0  0  0
   -2.3390    5.0456   -4.1951 H   0  0  0  0  0  0  0  0  0  0  0  0
   -3.2790    4.2656   -5.1051 H   0  0  0  0  0  0  0  0  0  0  0  0
   -4.6790    5.9156   -0.3251 O   0  0  0  0  0  0  0  0  0  0  0  0
   -5.5690    6.1056   -0.0351 H   0  0  0  0  0  0  0  0  0  0  0  0
   -4.3290    5.3256    0.3449 H   0  0  0  0  0  0  0  0  0  0  0  0
   -2.7490   -1.4144   -2.6951 O   0  0  0  0  0  0  0  0  0  0  0  0
   -2.4190   -2.0844   -3.2951 H   0  0  0  0  0  0  0  0  0  0  0  0
   -2.0290   -0.7944   -2.6051 H   0  0  0  0  0  0  0  0  0  0  0  0
  -10.3290   -2.6644   -4.0951 C   0  0  0  0  0  0  0  0  0  0  0  0
   -8.9890   -2.5644   -3.3451 C   0  0  0  0  0  0  0  0  0  0  0  0
   -7.9290   -2.5844   -3.9751 O   0  0  0  0  0  0  0  0  0  0  0  0
  -11.0290   -1.3044   -4.1751 C   0  0  0  0  0  0  0  0  0  0  0  0
  -10.1290   -0.2144   -4.7051 C   0  0  0  0  0  0  0  0  0  0  0  0
   -9.3790    0.6256   -3.9451 C   0  0  0  0  0  0  0  0  0  0  0  0
   -9.8090   -0.0144   -6.0551 N   0  0  0  0  0  0  0  0  0  0  0  0
   -8.8690    0.9456   -6.0551 C   0  0  0  0  0  0  0  0  0  0  0  0
   -8.5990    1.3456   -4.8051 N   0  0  0  0  0  0  0  0  0  0  0  0
  -10.9918   -3.3566   -3.5758 H   0  0  0  0  0  0  0  0  0  0  0  0
  -10.0890   -2.9844   -5.1151 H   0  0  0  0  0  0  0  0  0  0  0  0
  -11.3690   -1.0044   -3.1851 H   0  0  0  0  0  0  0  0  0  0  0  0
  -11.8990   -1.3844   -4.8151 H   0  0  0  0  0  0  0  0  0  0  0  0
   -9.3790    0.6656   -2.8651 H   0  0  0  0  0  0  0  0  0  0  0  0
   -8.3890    1.3156   -6.9451 H   0  0  0  0  0  0  0  0  0  0  0  0
   -7.8490    1.9856   -4.5351 H   0  0  0  0  0  0  0  0  0  0  0  0
   -9.0290   -2.5044   -2.0051 N   0  0  0  0  0  0  0  0  0  0  0  0
   -7.8590   -2.3744   -1.1251 C   0  0  0  0  0  0  0  0  0  0  0  0
   -8.1890   -1.3844    0.0049 C   0  0  0  0  0  0  0  0  0  0  0  0
   -8.4590    0.0656   -0.4051 C   0  0  0  0  0  0  0  0  0  0  0  0
   -7.4090    0.8556   -0.9151 C   0  0  0  0  0  0  0  0  0  0  0  0
   -9.7290    0.6456   -0.2051 C   0  0  0  0  0  0  0  0  0  0  0  0
   -7.6190    2.2156   -1.2051 C   0  0  0  0  0  0  0  0  0  0  0  0
   -9.9390    2.0156   -0.4951 C   0  0  0  0  0  0  0  0  0  0  0  0
   -8.8790    2.8056   -0.9851 C   0  0  0  0  0  0  0  0  0  0  0  0
   -9.0590    4.1256   -1.2551 O   0  0  0  0  0  0  0  0  0  0  0  0
   -7.5916   -3.3499   -0.7190 H   0  0  0  0  0  0  0  0  0  0  0  0
   -9.9490   -2.5044   -1.5751 H   0  0  0  0  0  0  0  0  0  0  0  0
   -7.0390   -1.9444   -1.7051 H   0  0  0  0  0  0  0  0  0  0  0  0
   -7.3590   -1.3544    0.7049 H   0  0  0  0  0  0  0  0  0  0  0  0
   -9.0590   -1.7544    0.5549 H   0  0  0  0  0  0  0  0  0  0  0  0
   -6.4290    0.4156   -1.0751 H   0  0  0  0  0  0  0  0  0  0  0  0
  -10.5390    0.0456    0.1649 H   0  0  0  0  0  0  0  0  0  0  0  0
   -6.8090    2.8256   -1.5751 H   0  0  0  0  0  0  0  0  0  0  0  0
  -10.9090    2.4456   -0.3251 H   0  0  0  0  0  0  0  0  0  0  0  0
   -9.9390    4.4556   -1.0051 H   0  0  0  0  0  0  0  0  0  0  0  0
   -3.6490   -6.3644   -0.6651 C   0  0  0  0  0  0  0  0  0  0  0  0
   -3.2490   -5.8244    0.7149 C   0  0  0  0  0  0  0  0  0  0  0  0
   -2.2790   -6.2944    1.3149 O   0  0  0  0  0  0  0  0  0  0  0  0
   -2.6790   -5.8044   -1.7251 C   0  0  0  0  0  0  0  0  0  0  0  0
   -2.7890   -6.4144   -3.1251 C   0  0  0  0  0  0  0  0  0  0  0  0
   -3.8890   -6.4944   -3.7151 O   0  0  0  0  0  0  0  0  0  0  0  0
   -1.7490   -6.8344   -3.6651 O   0  5  0  0  0  0  0  0  0  0  0  0
   -4.6749   -6.0859   -0.9062 H   0  0  0  0  0  0  0  0  0  0  0  0
   -3.5090   -7.4444   -0.6351 H   0  0  0  0  0  0  0  0  0  0  0  0
   -1.6590   -5.9744   -1.3651 H   0  0  0  0  0  0  0  0  0  0  0  0
   -2.8090   -4.7244   -1.7951 H   0  0  0  0  0  0  0  0  0  0  0  0
   -4.0090   -4.8544    1.2449 N   0  0  0  0  0  0  0  0  0  0  0  0
   -3.7290   -4.1144    2.4749 C   0  0  0  0  0  0  0  0  0  0  0  0
   -3.9590   -2.6044    2.2149 C   0  0  0  0  0  0  0  0  0  0  0  0
   -3.1990   -2.0344    0.9949 C   0  0  0  0  0  0  0  0  0  0  0  0
   -3.6090   -0.5844    0.7449 C   0  0  0  0  0  0  0  0  0  0  0  0
   -1.6790   -2.0644    1.2049 C   0  0  0  0  0  0  0  0  0  0  0  0
   -4.3792   -4.4793    3.2700 H   0  0  0  0  0  0  0  0  0  0  0  0
   -4.7990   -4.5344    0.6949 H   0  0  0  0  0  0  0  0  0  0  0  0
   -2.6890   -4.2444    2.7449 H   0  0  0  0  0  0  0  0  0  0  0  0
   -3.6790   -2.0444    3.1049 H   0  0  0  0  0  0  0  0  0  0  0  0
   -5.0290   -2.4444    2.0549 H   0  0  0  0  0  0  0  0  0  0  0  0
   -3.4390   -2.6044    0.1049 H   0  0  0  0  0  0  0  0  0  0  0  0
   -3.1090   -0.2144   -0.1451 H   0  0  0  0  0  0  0  0  0  0  0  0
   -4.6890   -0.5544    0.5649 H   0  0  0  0  0  0  0  0  0  0  0  0
   -3.3490    0.0456    1.5849 H   0  0  0  0  0  0  0  0  0  0  0  0
   -1.4090   -1.4944    2.0849 H   0  0  0  0  0  0  0  0  0  0  0  0
   -1.3490   -3.0944    1.3049 H   0  0  0  0  0  0  0  0  0  0  0  0
   -1.1890   -1.6344    0.3249 H   0  0  0  0  0  0  0  0  0  0  0  0
   -5.4890    1.2456    8.7949 C   0  0  0  0  0  0  0  0  0  0  0  0
   -4.3890    2.0956    8.1449 C   0  0  0  0  0  0  0  0  0  0  0  0
   -3.4990    1.3756    7.1449 C   0  0  0  0  0  0  0  0  0  0  0  0
   -3.9590    1.1556    5.8249 C   0  0  0  0  0  0  0  0  0  0  0  0
   -2.2090    0.9656    7.5049 C   0  0  0  0  0  0  0  0  0  0  0  0
   -3.1390    0.5056    4.8949 C   0  0  0  0  0  0  0  0  0  0  0  0
   -1.3790    0.3256    6.5649 C   0  0  0  0  0  0  0  0  0  0  0  0
   -1.8390    0.0956    5.2549 C   0  0  0  0  0  0  0  0  0  0  0  0
   -6.2377    0.9034    8.0805 H   0  0  0  0  0  0  0  0  0  0  0  0
   -5.0368    0.3494    9.2197 H   0  0  0  0  0  0  0  0  0  0  0  0
   -5.9890    1.8756    9.5349 H   0  0  0  0  0  0  0  0  0  0  0  0
   -3.7590    2.5056    8.9349 H   0  0  0  0  0  0  0  0  0  0  0  0
   -4.8490    2.9556    7.6449 H   0  0  0  0  0  0  0  0  0  0  0  0
   -4.9490    1.4856    5.5349 H   0  0  0  0  0  0  0  0  0  0  0  0
   -1.8390    1.1556    8.5049 H   0  0  0  0  0  0  0  0  0  0  0  0
   -3.4890    0.3356    3.8849 H   0  0  0  0  0  0  0  0  0  0  0  0
   -0.3690    0.0356    6.8449 H   0  0  0  0  0  0  0  0  0  0  0  0
   -1.1990   -0.3944    4.5349 H   0  0  0  0  0  0  0  0  0  0  0  0
   -8.9290    3.3956    4.2449 C   0  0  0  0  0  0  0  0  0  0  0  0
   -7.6790    2.5256    4.0049 C   0  0  0  0  0  0  0  0  0  0  0  0
   -7.2190    2.3656    2.5449 C   0  0  0  0  0  0  0  0  0  0  0  0
   -6.8790    3.6856    1.8649 C   0  0  0  0  0  0  0  0  0  0  0  0
   -5.9690    1.4956    2.5049 C   0  0  0  0  0  0  0  0  0  0  0  0
   -9.2502    3.2837    5.2805 H   0  0  0  0  0  0  0  0  0  0  0  0
   -9.7601    3.0834    3.6125 H   0  0  0  0  0  0  0  0  0  0  0  0
   -8.6690    4.4256    4.0349 H   0  0  0  0  0  0  0  0  0  0  0  0
   -7.8590    1.5356    4.3949 H   0  0  0  0  0  0  0  0  0  0  0  0
   -6.8490    2.9656    4.5749 H   0  0  0  0  0  0  0  0  0  0  0  0
   -8.0090    1.8656    1.9749 H   0  0  0  0  0  0  0  0  0  0  0  0
   -6.4290    3.5156    0.8949 H   0  0  0  0  0  0  0  0  0  0  0  0
   -7.7890    4.2656    1.7149 H   0  0  0  0  0  0  0  0  0  0  0  0
   -6.1790    4.2556    2.4849 H   0  0  0  0  0  0  0  0  0  0  0  0
   -5.1590    1.9756    3.0549 H   0  0  0  0  0  0  0  0  0  0  0  0
   -6.1790    0.5156    2.9449 H   0  0  0  0  0  0  0  0  0  0  0  0
   -5.6690    1.3556    1.4649 H   0  0  0  0  0  0  0  0  0  0  0  0
    2.9210    9.6156   -2.9451 C   0  0  0  0  0  0  0  0  0  0  0  0
    1.4910    9.3656   -2.4051 C   0  0  0  0  0  0  0  0  0  0  0  0
    0.5610   10.1356   -2.6651 O   0  0  0  0  0  0  0  0  0  0  0  0
    3.6214    8.9519   -2.4381 H   0  0  0  0  0  0  0  0  0  0  0  0
    2.9450    9.4180   -4.0168 H   0  0  0  0  0  0  0  0  0  0  0  0
    3.2041   10.6517   -2.7596 H   0  0  0  0  0  0  0  0  0  0  0  0
    1.3210    8.2856   -1.6351 N   0  0  0  0  0  0  0  0  0  0  0  0
    0.0510    7.8856   -1.0051 C   0  0  0  0  0  0  0  0  0  0  0  0
   -0.5490    8.9956   -0.1251 C   0  0  0  0  0  0  0  0  0  0  0  0
   -1.7290    9.3456   -0.3051 O   0  0  0  0  0  0  0  0  0  0  0  0
    0.2610    6.5856   -0.2151 C   0  0  0  0  0  0  0  0  0  0  0  0
   -1.0190    6.0456    0.4149 C   0  0  0  0  0  0  0  0  0  0  0  0
    0.7310    5.5856   -1.0951 O   0  0  0  0  0  0  0  0  0  0  0  0
    2.1110    7.6656   -1.5151 H   0  0  0  0  0  0  0  0  0  0  0  0
   -0.6790    7.6756   -1.7751 H   0  0  0  0  0  0  0  0  0  0  0  0
    0.9910    6.7456    0.5749 H   0  0  0  0  0  0  0  0  0  0  0  0
    1.4510    5.1356   -0.6251 H   0  0  0  0  0  0  0  0  0  0  0  0
   -1.3890    6.7356    1.1649 H   0  0  0  0  0  0  0  0  0  0  0  0
   -1.7790    5.8956   -0.3551 H   0  0  0  0  0  0  0  0  0  0  0  0
   -0.7990    5.0956    0.8949 H   0  0  0  0  0  0  0  0  0  0  0  0
    0.2410    9.6156    0.7449 N   0  0  0  0  0  0  0  0  0  0  0  0
   -0.1390   10.8356    1.4549 C   0  0  0  0  0  0  0  0  0  0  0  0
    0.5684   11.0217    2.2630 H   0  0  0  0  0  0  0  0  0  0  0  0
   -0.1301   11.6774    0.7625 H   0  0  0  0  0  0  0  0  0  0  0  0
   -1.1402   10.7173    1.8692 H   0  0  0  0  0  0  0  0  0  0  0  0
    1.1910    9.2956    0.8549 H   0  0  0  0  0  0  0  0  0  0  0  0
   -1.8790   11.2556   -4.3351 C   0  0  0  0  0  0  0  0  0  0  0  0
   -2.8090   10.1456   -4.5951 N   0  0  0  0  0  0  0  0  0  0  0  0
   -2.5190    8.8656   -4.4551 C   0  0  0  0  0  0  0  0  0  0  0  0
   -1.3490    8.4656   -4.0651 N   0  3  0  0  0  0  0  0  0  0  0  0
   -3.3890    7.9456   -4.7251 N   0  0  0  0  0  0  0  0  0  0  0  0
   -2.2932   12.1715   -4.7567 H   0  0  0  0  0  0  0  0  0  0  0  0
   -1.7390   11.3656   -3.2551 H   0  0  0  0  0  0  0  0  0  0  0  0
   -0.9090   11.0456   -4.7951 H   0  0  0  0  0  0  0  0  0  0  0  0
   -3.7690   10.3756   -4.8551 H   0  0  0  0  0  0  0  0  0  0  0  0
   -0.6490    9.1656   -3.8251 H   0  0  0  0  0  0  0  0  0  0  0  0
   -1.1290    7.4856   -4.0251 H   0  0  0  0  0  0  0  0  0  0  0  0
   -4.2890    8.1956   -5.1251 H   0  0  0  0  0  0  0  0  0  0  0  0
   -3.1790    6.9656   -4.5851 H   0  0  0  0  0  0  0  0  0  0  0  0
   -4.4890   10.4756    2.1849 C   0  0  0  0  0  0  0  0  0  0  0  0
   -3.6190    9.4856    2.9849 C   0  0  0  0  0  0  0  0  0  0  0  0
   -3.9990    9.3956    4.4649 C   0  0  0  0  0  0  0  0  0  0  0  0
   -3.6390    8.0656    2.3949 C   0  0  0  0  0  0  0  0  0  0  0  0
   -4.4635   11.4709    2.6285 H   0  0  0  0  0  0  0  0  0  0  0  0
   -5.5281   10.1464    2.1798 H   0  0  0  0  0  0  0  0  0  0  0  0
   -4.0890   10.4856    1.1649 H   0  0  0  0  0  0  0  0  0  0  0  0
   -2.5890    9.8356    2.9349 H   0  0  0  0  0  0  0  0  0  0  0  0
   -5.0090    9.0156    4.5849 H   0  0  0  0  0  0  0  0  0  0  0  0
   -3.3090    8.7156    4.9749 H   0  0  0  0  0  0  0  0  0  0  0  0
   -3.9190   10.3756    4.9449 H   0  0  0  0  0  0  0  0  0  0  0  0
   -2.9090    7.4556    2.9049 H   0  0  0  0  0  0  0  0  0  0  0  0
   -4.6290    7.6156    2.5149 H   0  0  0  0  0  0  0  0  0  0  0  0
   -3.3990    8.1056    1.3349 H   0  0  0  0  0  0  0  0  0  0  0  0
   -6.1190   11.7956   -2.3951 C   0  0  0  0  0  0  0  0  0  0  0  0
   -4.9690   10.9156   -1.8651 C   0  0  0  0  0  0  0  0  0  0  0  0
   -5.1990    9.4156   -1.9151 C   0  0  0  0  0  0  0  0  0  0  0  0
   -4.2590    8.6356   -1.4251 N   0  0  0  0  0  0  0  0  0  0  0  0
   -6.2090    8.9256   -2.3951 O   0  0  0  0  0  0  0  0  0  0  0  0
   -6.3598   11.5346   -3.4256 H   0  0  0  0  0  0  0  0  0  0  0  0
   -7.0362   11.6638   -1.8210 H   0  0  0  0  0  0  0  0  0  0  0  0
   -5.7390   12.8156   -2.3351 H   0  0  0  0  0  0  0  0  0  0  0  0
   -4.7790   11.1956   -0.8251 H   0  0  0  0  0  0  0  0  0  0  0  0
   -4.0690   11.1456   -2.4151 H   0  0  0  0  0  0  0  0  0  0  0  0
   -3.4190    9.0256   -1.0051 H   0  0  0  0  0  0  0  0  0  0  0  0
   -4.4590    7.6456   -1.3251 H   0  0  0  0  0  0  0  0  0  0  0  0
   -7.1090    9.3656   -7.8451 C   0  0  0  0  0  0  0  0  0  0  0  0
   -6.2990    8.1556   -7.3451 C   0  0  0  0  0  0  0  0  0  0  0  0
   -5.4890    8.2856   -6.4251 O   0  0  0  0  0  0  0  0  0  0  0  0
   -6.5254   10.2759   -7.7080 H   0  0  0  0  0  0  0  0  0  0  0  0
   -8.0367    9.4406   -7.2778 H   0  0  0  0  0  0  0  0  0  0  0  0
   -7.3399    9.2371   -8.9026 H   0  0  0  0  0  0  0  0  0  0  0  0
   -6.4990    7.0056   -7.9751 N   0  0  0  0  0  0  0  0  0  0  0  0
   -5.7390    5.7656   -7.7951 C   0  0  0  0  0  0  0  0  0  0  0  0
   -6.6390    4.6656   -7.2151 C   0  0  0  0  0  0  0  0  0  0  0  0
   -6.0090    3.2956   -7.2551 C   0  0  0  0  0  0  0  0  0  0  0  0
   -6.3790    2.2756   -8.0851 C   0  0  0  0  0  0  0  0  0  0  0  0
   -4.8690    2.9056   -6.5351 N   0  0  0  0  0  0  0  0  0  0  0  0
   -4.6290    1.6356   -6.9151 C   0  0  0  0  0  0  0  0  0  0  0  0
   -5.5190    1.2256   -7.8251 N   0  0  0  0  0  0  0  0  0  0  0  0
   -5.3576    5.4556   -8.7680 H   0  0  0  0  0  0  0  0  0  0  0  0
   -7.1990    6.9956   -8.7151 H   0  0  0  0  0  0  0  0  0  0  0  0
   -4.9090    5.9356   -7.0951 H   0  0  0  0  0  0  0  0  0  0  0  0
   -7.5690    4.6356   -7.7951 H   0  0  0  0  0  0  0  0  0  0  0  0
   -6.8890    4.9156   -6.1851 H   0  0  0  0  0  0  0  0  0  0  0  0
   -7.1890    2.2956   -8.8051 H   0  0  0  0  0  0  0  0  0  0  0  0
   -3.8390    1.0156   -6.5151 H   0  0  0  0  0  0  0  0  0  0  0  0
   -5.5990    0.2756   -8.1951 H   0  0  0  0  0  0  0  0  0  0  0  0
   -1.8190    0.3556   -9.7551 C   0  0  0  0  0  0  0  0  0  0  0  0
   -0.3490    0.5756   -9.3651 C   0  0  0  0  0  0  0  0  0  0  0  0
    0.3710    1.3256  -10.0351 O   0  0  0  0  0  0  0  0  0  0  0  0
   -2.4015    1.2367   -9.4858 H   0  0  0  0  0  0  0  0  0  0  0  0
   -1.8893    0.1889  -10.8300 H   0  0  0  0  0  0  0  0  0  0  0  0
   -2.2098   -0.5134   -9.2257 H   0  0  0  0  0  0  0  0  0  0  0  0
    0.1210   -0.0744   -8.2951 N   0  0  0  0  0  0  0  0  0  0  0  0
    1.4910    0.0956   -7.7951 C   0  0  0  0  0  0  0  0  0  0  0  0
    2.5410   -0.6244   -8.6551 C   0  0  0  0  0  0  0  0  0  0  0  0
    3.7110   -0.2144   -8.6651 O   0  0  0  0  0  0  0  0  0  0  0  0
    1.6110   -0.4344   -6.3551 C   0  0  0  0  0  0  0  0  0  0  0  0
    1.2610   -1.9144   -6.2351 C   0  0  0  0  0  0  0  0  0  0  0  0
    2.2010   -2.7344   -6.1051 O   0  0  0  0  0  0  0  0  0  0  0  0
    0.0710   -2.2944   -6.2751 O   0  5  0  0  0  0  0  0  0  0  0  0
   -0.5190   -0.6444   -7.7451 H   0  0  0  0  0  0  0  0  0  0  0  0
    1.7410    1.1656   -7.7851 H   0  0  0  0  0  0  0  0  0  0  0  0
    0.9310    0.1256   -5.7051 H   0  0  0  0  0  0  0  0  0  0  0  0
    2.6210   -0.2644   -5.9951 H   0  0  0  0  0  0  0  0  0  0  0  0
    2.1410   -1.7044   -9.3151 N   0  0  0  0  0  0  0  0  0  0  0  0
    3.0210   -2.6744   -9.9751 C   0  0  0  0  0  0  0  0  0  0  0  0
    3.6110   -3.6244   -8.9251 C   0  0  0  0  0  0  0  0  0  0  0  0
    2.5810   -4.3244   -8.2351 O   0  0  0  0  0  0  0  0  0  0  0  0
    2.4539   -3.2429  -10.7122 H   0  0  0  0  0  0  0  0  0  0  0  0
    1.1610   -1.9544   -9.2651 H   0  0  0  0  0  0  0  0  0  0  0  0
    3.8410   -2.1344  -10.4551 H   0  0  0  0  0  0  0  0  0  0  0  0
    4.2010   -3.0544   -8.2051 H   0  0  0  0  0  0  0  0  0  0  0  0
    4.2610   -4.3444   -9.4151 H   0  0  0  0  0  0  0  0  0  0  0  0
    2.3710   -3.8044   -7.4251 H   0  0  0  0  0  0  0  0  0  0  0  0
    1.4710   -7.6944  -10.2551 C   0  0  0  0  0  0  0  0  0  0  0  0
    0.0610   -7.2244   -9.8451 C   0  0  0  0  0  0  0  0  0  0  0  0
   -0.8190   -8.0644   -9.6651 O   0  0  0  0  0  0  0  0  0  0  0  0
    2.2610   -8.1244   -9.0051 C   0  0  0  0  0  0  0  0  0  0  0  0
    3.5310   -8.8944   -9.3751 C   0  0  0  0  0  0  0  0  0  0  0  0
    4.1310   -9.5544   -8.1351 C   0  0  0  0  0  0  0  0  0  0  0  0
    3.8310  -10.7544   -7.8751 O   0  0  0  0  0  0  0  0  0  0  0  0
    4.8910   -8.8944   -7.3951 O   0  5  0  0  0  0  0  0  0  0  0  0
    2.0138   -6.9024  -10.7710 H   0  0  0  0  0  0  0  0  0  0  0  0
    1.3210   -8.5744  -10.8651 H   0  0  0  0  0  0  0  0  0  0  0  0
    1.6310   -8.7744   -8.4051 H   0  0  0  0  0  0  0  0  0  0  0  0
    2.5210   -7.2444   -8.4151 H   0  0  0  0  0  0  0  0  0  0  0  0
    4.2610   -8.2244   -9.8251 H   0  0  0  0  0  0  0  0  0  0  0  0
    3.2810   -9.6744  -10.1051 H   0  0  0  0  0  0  0  0  0  0  0  0
   -0.1790   -5.9244   -9.7151 N   0  0  0  0  0  0  0  0  0  0  0  0
   -1.5090   -5.3644   -9.4151 C   0  0  0  0  0  0  0  0  0  0  0  0
   -1.3690   -4.1444   -8.5051 C   0  0  0  0  0  0  0  0  0  0  0  0
   -0.7490   -4.5344   -7.2951 O   0  0  0  0  0  0  0  0  0  0  0  0
   -1.9844   -5.0935  -10.3578 H   0  0  0  0  0  0  0  0  0  0  0  0
    0.5910   -5.2744   -9.8451 H   0  0  0  0  0  0  0  0  0  0  0  0
   -2.0990   -6.0944   -8.8751 H   0  0  0  0  0  0  0  0  0  0  0  0
   -2.3590   -3.7344   -8.2851 H   0  0  0  0  0  0  0  0  0  0  0  0
   -0.7690   -3.3744   -8.9951 H   0  0  0  0  0  0  0  0  0  0  0  0
   -0.4190   -3.7144   -6.8651 H   0  0  0  0  0  0  0  0  0  0  0  0
   -4.9590   -8.3844   -9.9451 C   0  0  0  0  0  0  0  0  0  0  0  0
   -4.0690   -9.6244   -9.7651 C   0  0  0  0  0  0  0  0  0  0  0  0
   -3.6990   -9.8044   -8.2851 C   0  0  0  0  0  0  0  0  0  0  0  0
   -2.7790   -8.7444   -7.8251 N   0  0  0  0  0  0  0  0  0  0  0  0
   -2.7390   -8.1644   -6.6451 C   0  0  0  0  0  0  0  0  0  0  0  0
   -3.4990   -8.5244   -5.6551 N   0  3  0  0  0  0  0  0  0  0  0  0
   -1.9190   -7.1944   -6.3951 N   0  0  0  0  0  0  0  0  0  0  0  0
   -5.2480   -8.2904  -10.9919 H   0  0  0  0  0  0  0  0  0  0  0  0
   -5.8290   -8.4944   -9.2951 H   0  0  0  0  0  0  0  0  0  0  0  0
   -4.4190   -7.4944   -9.6251 H   0  0  0  0  0  0  0  0  0  0  0  0
   -3.1690   -9.5344  -10.3651 H   0  0  0  0  0  0  0  0  0  0  0  0
   -4.6190  -10.5044  -10.0951 H   0  0  0  0  0  0  0  0  0  0  0  0
   -3.2090  -10.7744   -8.1651 H   0  0  0  0  0  0  0  0  0  0  0  0
   -4.6090   -9.8144   -7.6951 H   0  0  0  0  0  0  0  0  0  0  0  0
   -2.0790   -8.4344   -8.4951 H   0  0  0  0  0  0  0  0  0  0  0  0
   -4.1290   -9.3144   -5.7551 H   0  0  0  0  0  0  0  0  0  0  0  0
   -3.4990   -7.9444   -4.8151 H   0  0  0  0  0  0  0  0  0  0  0  0
   -1.3590   -6.7444   -7.1051 H   0  0  0  0  0  0  0  0  0  0  0  0
   -1.8590   -6.8644   -5.4251 H   0  0  0  0  0  0  0  0  0  0  0  0
    1.7710   -3.8444   -3.6451 N   0  0  0  0  0  0  0  0  0  0  0  0
    1.1110   -2.8644   -2.6551 C   0  0  0  0  0  0  0  0  0  0  0  0
   -0.3390    0.2056   -3.0851 O   0  0  0  0  0  0  0  0  0  0  0  0
   -0.4790    1.1256   -0.8751 C   0  0  0  0  0  0  0  0  0  0  0  0
   -1.8390    2.5956    0.1449 N   0  0  0  0  0  0  0  0  0  0  0  0
   -3.5290    4.1956    1.5949 O   0  0  0  0  0  0  0  0  0  0  0  0
   -0.0990    1.2956    0.4949 C   0  0  0  0  0  0  0  0  0  0  0  0
    1.1010   -0.5944   -1.5551 N   0  0  0  0  0  0  0  0  0  0  0  0
   -0.9390    2.1856    1.1249 C   0  0  0  0  0  0  0  0  0  0  0  0
   -3.5790    4.8256    3.8049 N   0  0  0  0  0  0  0  0  0  0  0  0
    1.8310   -1.5044   -2.4751 C   0  0  0  0  0  0  0  0  0  0  0  0
   -1.5490    1.9856   -1.0751 C   0  0  0  0  0  0  0  0  0  0  0  0
    3.2110   -4.2044   -3.2451 C   0  0  0  0  0  0  0  0  0  0  0  0
    0.9010   -5.0844   -3.8151 C   0  0  0  0  0  0  0  0  0  0  0  0
    0.0810    0.2356   -1.9451 C   0  0  0  0  0  0  0  0  0  0  0  0
   -1.8190    3.4856    3.2149 C   0  0  0  0  0  0  0  0  0  0  0  0
   -0.9690    2.6656    2.5049 C   0  0  0  0  0  0  0  0  0  0  0  0
   -1.7090    3.8456    4.6249 C   0  0  0  0  0  0  0  0  0  0  0  0
    1.0610    0.5956    1.1549 C   0  0  0  0  0  0  0  0  0  0  0  0
   -2.7890    4.6456    4.9449 C   0  0  0  0  0  0  0  0  0  0  0  0
   -2.2990    2.2456   -2.3551 C   0  0  0  0  0  0  0  0  0  0  0  0
   -3.0590    4.1756    2.7149 C   0  0  0  0  0  0  0  0  0  0  0  0
    3.3610   -4.9544   -1.9051 C   0  0  0  0  0  0  0  0  0  0  0  0
    1.3610   -6.0244   -4.9451 C   0  0  0  0  0  0  0  0  0  0  0  0
   -0.7390    3.5156    5.5849 C   0  0  0  0  0  0  0  0  0  0  0  0
   -2.9790    5.1656    6.2249 C   0  0  0  0  0  0  0  0  0  0  0  0
   -0.9090    4.0156    6.8949 C   0  0  0  0  0  0  0  0  0  0  0  0
   -2.0190    4.8356    7.2149 C   0  0  0  0  0  0  0  0  0  0  0  0
    0.2752    3.6141    8.1477 Cl  0  0  0  0  0  0  0  0  0  0  0  0
    0.0910   -2.6744   -3.0151 H   0  0  0  0  0  0  0  0  0  0  0  0
    1.0310   -3.3644   -1.6851 H   0  0  0  0  0  0  0  0  0  0  0  0
    1.9410   -1.0144   -3.4451 H   0  0  0  0  0  0  0  0  0  0  0  0
    2.8310   -1.6744   -2.0651 H   0  0  0  0  0  0  0  0  0  0  0  0
   -2.5890    3.2456    0.3049 H   0  0  0  0  0  0  0  0  0  0  0  0
    3.6410   -4.8244   -4.0451 H   0  0  0  0  0  0  0  0  0  0  0  0
    3.8010   -3.2844   -3.2051 H   0  0  0  0  0  0  0  0  0  0  0  0
    0.8810   -5.6344   -2.8651 H   0  0  0  0  0  0  0  0  0  0  0  0
   -0.1290   -4.7544   -4.0251 H   0  0  0  0  0  0  0  0  0  0  0  0
    1.4210   -0.5144   -0.6051 H   0  0  0  0  0  0  0  0  0  0  0  0
    0.8710   -0.4744    1.2649 H   0  0  0  0  0  0  0  0  0  0  0  0
    1.2710    0.9856    2.1649 H   0  0  0  0  0  0  0  0  0  0  0  0
    1.9910    0.7256    0.5849 H   0  0  0  0  0  0  0  0  0  0  0  0
   -1.6390    2.6956   -3.1151 H   0  0  0  0  0  0  0  0  0  0  0  0
   -3.1290    2.9456   -2.1951 H   0  0  0  0  0  0  0  0  0  0  0  0
   -2.7190    1.3256   -2.7651 H   0  0  0  0  0  0  0  0  0  0  0  0
    2.8210   -5.9144   -1.9251 H   0  0  0  0  0  0  0  0  0  0  0  0
    2.9810   -4.3544   -1.0751 H   0  0  0  0  0  0  0  0  0  0  0  0
    4.4210   -5.1844   -1.7151 H   0  0  0  0  0  0  0  0  0  0  0  0
    2.3610   -6.4244   -4.7551 H   0  0  0  0  0  0  0  0  0  0  0  0
    1.3810   -5.4944   -5.9051 H   0  0  0  0  0  0  0  0  0  0  0  0
    0.6710   -6.8744   -5.0451 H   0  0  0  0  0  0  0  0  0  0  0  0
   -4.4590    5.3456    3.7949 H   0  0  0  0  0  0  0  0  0  0  0  0
    1.8210   -3.3944   -4.5951 H   0  0  0  0  0  0  0  0  0  0  0  0
  1317  1  0  0  0  0
  2315  1  0  0  0  0
  3306  1  0  0  0  0
  4314  1  0  0  0  0
  5  6  1  0  0  0  0
  5  7  1  0  0  0  0
  8  9  1  0  0  0  0
  8 10  1  0  0  0  0
 11 12  1  0  0  0  0
 11 13  1  0  0  0  0
 14 15  1  0  0  0  0
 14 16  1  0  0  0  0
 17 18  1  0  0  0  0
 17 19  1  0  0  0  0
 20 21  1  0  0  0  0
 20 22  1  0  0  0  0
 23 24  1  0  0  0  0
 23 25  1  0  0  0  0
 26 27  1  0  0  0  0
 26 28  1  0  0  0  0
 29 30  1  0  0  0  0
 29 31  1  0  0  0  0
 32 33  1  0  0  0  0
 32 35  1  0  0  0  0
 32 41  1  0  0  0  0
 32 42  1  0  0  0  0
 33 34  2  0  0  0  0
 33 48  1  0  0  0  0
 35 36  1  0  0  0  0
 35 43  1  0  0  0  0
 35 44  1  0  0  0  0
 36 37  2  0  0  0  0
 36 38  1  0  0  0  0
 37 40  1  0  0  0  0
 37 45  1  0  0  0  0
 38 39  2  0  0  0  0
 39 40  1  0  0  0  0
 39 46  1  0  0  0  0
 40 47  1  0  0  0  0
 48 49  1  0  0  0  0
 48 59  1  0  0  0  0
 49 50  1  0  0  0  0
 49 58  1  0  0  0  0
 49 60  1  0  0  0  0
 50 51  1  0  0  0  0
 50 61  1  0  0  0  0
 50 62  1  0  0  0  0
 51 52  2  0  0  0  0
 51 53  1  0  0  0  0
 52 54  1  0  0  0  0
 52 63  1  0  0  0  0
 53 55  2  0  0  0  0
 53 64  1  0  0  0  0
 54 56  2  0  0  0  0
 54 65  1  0  0  0  0
 55 56  1  0  0  0  0
 55 66  1  0  0  0  0
 56 57  1  0  0  0  0
 57 67  1  0  0  0  0
 68 69  1  0  0  0  0
 68 71  1  0  0  0  0
 68 75  1  0  0  0  0
 68 76  1  0  0  0  0
 69 70  2  0  0  0  0
 69 79  1  0  0  0  0
 71 72  1  0  0  0  0
 71 77  1  0  0  0  0
 71 78  1  0  0  0  0
 72 73  2  0  0  0  0
 72 74  1  0  0  0  0
 79 80  1  0  0  0  0
 79 86  1  0  0  0  0
 80 81  1  0  0  0  0
 80 85  1  0  0  0  0
 80 87  1  0  0  0  0
 81 82  1  0  0  0  0
 81 88  1  0  0  0  0
 81 89  1  0  0  0  0
 82 83  1  0  0  0  0
 82 84  1  0  0  0  0
 82 90  1  0  0  0  0
 83 91  1  0  0  0  0
 83 92  1  0  0  0  0
 83 93  1  0  0  0  0
 84 94  1  0  0  0  0
 84 95  1  0  0  0  0
 84 96  1  0  0  0  0
 97 98  1  0  0  0  0
 97105  1  0  0  0  0
 97106  1  0  0  0  0
 97107  1  0  0  0  0
 98 99  1  0  0  0  0
 98108  1  0  0  0  0
 98109  1  0  0  0  0
 99100  2  0  0  0  0
 99101  1  0  0  0  0
100102  1  0  0  0  0
100110  1  0  0  0  0
101103  2  0  0  0  0
101111  1  0  0  0  0
102104  2  0  0  0  0
102112  1  0  0  0  0
103104  1  0  0  0  0
103113  1  0  0  0  0
104114  1  0  0  0  0
115116  1  0  0  0  0
115120  1  0  0  0  0
115121  1  0  0  0  0
115122  1  0  0  0  0
116117  1  0  0  0  0
116123  1  0  0  0  0
116124  1  0  0  0  0
117118  1  0  0  0  0
117119  1  0  0  0  0
117125  1  0  0  0  0
118126  1  0  0  0  0
118127  1  0  0  0  0
118128  1  0  0  0  0
119129  1  0  0  0  0
119130  1  0  0  0  0
119131  1  0  0  0  0
132133  1  0  0  0  0
132135  1  0  0  0  0
132136  1  0  0  0  0
132137  1  0  0  0  0
133134  2  0  0  0  0
133138  1  0  0  0  0
138139  1  0  0  0  0
138145  1  0  0  0  0
139140  1  0  0  0  0
139142  1  0  0  0  0
139146  1  0  0  0  0
140141  2  0  0  0  0
140152  1  0  0  0  0
142143  1  0  0  0  0
142144  1  0  0  0  0
142147  1  0  0  0  0
143149  1  0  0  0  0
143150  1  0  0  0  0
143151  1  0  0  0  0
144148  1  0  0  0  0
152153  1  0  0  0  0
152157  1  0  0  0  0
153154  1  0  0  0  0
153155  1  0  0  0  0
153156  1  0  0  0  0
158159  1  0  0  0  0
158163  1  0  0  0  0
158164  1  0  0  0  0
158165  1  0  0  0  0
159160  1  0  0  0  0
159166  1  0  0  0  0
160161  2  0  0  0  0
160162  1  0  0  0  0
161167  1  0  0  0  0
161168  1  0  0  0  0
162169  1  0  0  0  0
162170  1  0  0  0  0
171172  1  0  0  0  0
171175  1  0  0  0  0
171176  1  0  0  0  0
171177  1  0  0  0  0
172173  1  0  0  0  0
172174  1  0  0  0  0
172178  1  0  0  0  0
173179  1  0  0  0  0
173180  1  0  0  0  0
173181  1  0  0  0  0
174182  1  0  0  0  0
174183  1  0  0  0  0
174184  1  0  0  0  0
185186  1  0  0  0  0
185190  1  0  0  0  0
185191  1  0  0  0  0
185192  1  0  0  0  0
186187  1  0  0  0  0
186193  1  0  0  0  0
186194  1  0  0  0  0
187188  1  0  0  0  0
187189  2  0  0  0  0
188195  1  0  0  0  0
188196  1  0  0  0  0
197198  1  0  0  0  0
197200  1  0  0  0  0
197201  1  0  0  0  0
197202  1  0  0  0  0
198199  2  0  0  0  0
198203  1  0  0  0  0
203204  1  0  0  0  0
203212  1  0  0  0  0
204205  1  0  0  0  0
204211  1  0  0  0  0
204213  1  0  0  0  0
205206  1  0  0  0  0
205214  1  0  0  0  0
205215  1  0  0  0  0
206207  2  0  0  0  0
206208  1  0  0  0  0
207210  1  0  0  0  0
207216  1  0  0  0  0
208209  2  0  0  0  0
209210  1  0  0  0  0
209217  1  0  0  0  0
210218  1  0  0  0  0
219220  1  0  0  0  0
219222  1  0  0  0  0
219223  1  0  0  0  0
219224  1  0  0  0  0
220221  2  0  0  0  0
220225  1  0  0  0  0
225226  1  0  0  0  0
225233  1  0  0  0  0
226227  1  0  0  0  0
226229  1  0  0  0  0
226234  1  0  0  0  0
227228  2  0  0  0  0
227237  1  0  0  0  0
229230  1  0  0  0  0
229235  1  0  0  0  0
229236  1  0  0  0  0
230231  2  0  0  0  0
230232  1  0  0  0  0
237238  1  0  0  0  0
237242  1  0  0  0  0
238239  1  0  0  0  0
238241  1  0  0  0  0
238243  1  0  0  0  0
239240  1  0  0  0  0
239244  1  0  0  0  0
239245  1  0  0  0  0
240246  1  0  0  0  0
247248  1  0  0  0  0
247250  1  0  0  0  0
247255  1  0  0  0  0
247256  1  0  0  0  0
248249  2  0  0  0  0
248261  1  0  0  0  0
250251  1  0  0  0  0
250257  1  0  0  0  0
250258  1  0  0  0  0
251252  1  0  0  0  0
251259  1  0  0  0  0
251260  1  0  0  0  0
252253  2  0  0  0  0
252254  1  0  0  0  0
261262  1  0  0  0  0
261266  1  0  0  0  0
262263  1  0  0  0  0
262265  1  0  0  0  0
262267  1  0  0  0  0
263264  1  0  0  0  0
263268  1  0  0  0  0
263269  1  0  0  0  0
264270  1  0  0  0  0
271272  1  0  0  0  0
271278  1  0  0  0  0
271279  1  0  0  0  0
271280  1  0  0  0  0
272273  1  0  0  0  0
272281  1  0  0  0  0
272282  1  0  0  0  0
273274  1  0  0  0  0
273283  1  0  0  0  0
273284  1  0  0  0  0
274275  1  0  0  0  0
274285  1  0  0  0  0
275276  2  0  0  0  0
275277  1  0  0  0  0
276286  1  0  0  0  0
276287  1  0  0  0  0
277288  1  0  0  0  0
277289  1  0  0  0  0
290291  1  0  0  0  0
290302  1  0  0  0  0
290303  1  0  0  0  0
290342  1  0  0  0  0
291300  1  0  0  0  0
291319  1  0  0  0  0
291320  1  0  0  0  0
292304  2  0  0  0  0
293296  1  0  0  0  0
293301  2  0  0  0  0
293304  1  0  0  0  0
294298  1  0  0  0  0
294301  1  0  0  0  0
294323  1  0  0  0  0
295311  2  0  0  0  0
296298  2  0  0  0  0
296308  1  0  0  0  0
297300  1  0  0  0  0
297304  1  0  0  0  0
297328  1  0  0  0  0
298306  1  0  0  0  0
299309  1  0  0  0  0
299311  1  0  0  0  0
299341  1  0  0  0  0
300321  1  0  0  0  0
300322  1  0  0  0  0
301310  1  0  0  0  0
302312  1  0  0  0  0
302324  1  0  0  0  0
302325  1  0  0  0  0
303313  1  0  0  0  0
303326  1  0  0  0  0
303327  1  0  0  0  0
305306  2  0  0  0  0
305307  1  0  0  0  0
305311  1  0  0  0  0
307309  2  0  0  0  0
307314  1  0  0  0  0
308329  1  0  0  0  0
308330  1  0  0  0  0
308331  1  0  0  0  0
309315  1  0  0  0  0
310332  1  0  0  0  0
310333  1  0  0  0  0
310334  1  0  0  0  0
312335  1  0  0  0  0
312336  1  0  0  0  0
312337  1  0  0  0  0
313338  1  0  0  0  0
313339  1  0  0  0  0
313340  1  0  0  0  0
314316  2  0  0  0  0
315317  2  0  0  0  0
316317  1  0  0  0  0
316318  1  0  0  0  0
M  END
$$$$
