22

O      1.225500   -0.000000   -0.000000
C      0.000000   -0.000000   -0.000000
N     -0.713000    0.000000    1.154400
H     -1.712600    0.063700    1.111800
C     -0.806800   -0.008800   -1.275400
C     -0.038900    0.050500    2.435000
H     -0.754300   -0.173300    3.220300
H      0.760300   -0.685200    2.452100
H      0.401600    1.029800    2.616000
H     -1.879900   -0.053500   -1.105800
H     -0.500400   -0.864800   -1.870900
H     -0.569100    0.889100   -1.840600
C      7.708100   -1.740600    0.310100
C      8.366900   -2.129800   -0.856100
C      9.692900   -2.488700   -0.710200
C     10.234500   -2.427100    0.572800
Br     5.894600   -1.231200    0.219400
N      8.260000   -1.694500    1.519900
N      9.547000   -2.044300    1.653000
H      7.856800   -2.144000   -1.807300
H     10.290600   -2.805200   -1.553100
H     11.264800   -2.692600    0.765000
