22

O      1.225500   -0.000000   -0.000000
C      0.000000   -0.000000   -0.000000
N     -0.713000    0.000000    1.154400
H     -1.712600    0.063700    1.111800
C     -0.806800   -0.008800   -1.275400
C     -0.038900    0.050500    2.435000
H     -0.754300   -0.173300    3.220300
H      0.760300   -0.685200    2.452100
H      0.401600    1.029800    2.616000
H     -1.879900   -0.053500   -1.105800
H     -0.500400   -0.864800   -1.870900
H     -0.569100    0.889100   -1.840600
C      1.779300   -4.302800    5.131100
C      1.835200   -5.672000    4.870800
C      1.932300   -6.494200    5.976700
C      1.964400   -5.881000    7.228300
Br     1.645800   -3.094100    3.689700
N      1.812500   -3.753800    6.342600
N      1.906800   -4.558400    7.410500
H      1.803400   -6.050000    3.860200
H      1.981700   -7.569400    5.881200
H      2.039300   -6.458600    8.139100
