22

O      1.225500   -0.000000   -0.000000
C      0.000000   -0.000000   -0.000000
N     -0.713000    0.000000    1.154400
H     -1.712600    0.063700    1.111800
C     -0.806800   -0.008800   -1.275400
C     -0.038900    0.050500    2.435000
H     -0.754300   -0.173300    3.220300
H      0.760300   -0.685200    2.452100
H      0.401600    1.029800    2.616000
H     -1.879900   -0.053500   -1.105800
H     -0.500400   -0.864800   -1.870900
H     -0.569100    0.889100   -1.840600
C     -3.118800    4.440600    2.560900
C     -3.561000    4.283300    3.874300
C     -4.465200    5.225700    4.324800
C     -4.841400    6.228300    3.432300
Br    -1.882800    3.206700    1.849300
N     -3.501600    5.413000    1.737500
N     -4.379200    6.323400    2.182100
H     -3.208100    3.468900    4.488600
H     -4.867600    5.191600    5.327100
H     -5.544400    7.000400    3.712800
