22

O      1.225500   -0.000000   -0.000000
C      0.000000   -0.000000   -0.000000
N     -0.713000    0.000000    1.154400
H     -1.712600    0.063700    1.111800
C     -0.806800   -0.008800   -1.275400
C     -0.038900    0.050500    2.435000
H     -0.754300   -0.173300    3.220300
H      0.760300   -0.685200    2.452100
H      0.401600    1.029800    2.616000
H     -1.879900   -0.053500   -1.105800
H     -0.500400   -0.864800   -1.870900
H     -0.569100    0.889100   -1.840600
C      5.768400   -0.962300    4.777200
C      5.915400   -1.173200    6.148100
C      7.157100   -1.614900    6.562100
C      8.128500   -1.803700    5.580200
Br     4.111300   -0.359000    4.108800
N      6.721100   -1.154000    3.868500
N      7.923200   -1.582700    4.278300
H      5.098100   -0.997100    6.830900
H      7.372200   -1.807700    7.603400
H      9.123300   -2.147400    5.827500
