22

O      1.225500   -0.000000   -0.000000
C      0.000000   -0.000000   -0.000000
N     -0.713000    0.000000    1.154400
H     -1.712600    0.063700    1.111800
C     -0.806800   -0.008800   -1.275400
C     -0.038900    0.050500    2.435000
H     -0.754300   -0.173300    3.220300
H      0.760300   -0.685200    2.452100
H      0.401600    1.029800    2.616000
H     -1.879900   -0.053500   -1.105800
H     -0.500400   -0.864800   -1.870900
H     -0.569100    0.889100   -1.840600
C      6.885200    0.389200   -2.208100
C      7.484800    1.621000   -1.946100
C      8.714500    1.833000   -2.538800
C      9.228000    0.807000   -3.330500
Br     5.204400    0.000300   -1.446400
N      7.407600   -0.567500   -2.971000
N      8.601100   -0.354100   -3.542500
H      7.003500    2.353400   -1.316000
H      9.260400    2.754900   -2.397700
H     10.184200    0.899900   -3.826500
