22

O      1.225500   -0.000000   -0.000000
C      0.000000   -0.000000   -0.000000
N     -0.713000    0.000000    1.154400
H     -1.712600    0.063700    1.111800
C     -0.806800   -0.008800   -1.275400
C     -0.038900    0.050500    2.435000
H     -0.754300   -0.173300    3.220300
H      0.760300   -0.685200    2.452100
H      0.401600    1.029800    2.616000
H     -1.879900   -0.053500   -1.105800
H     -0.500400   -0.864800   -1.870900
H     -0.569100    0.889100   -1.840600
C     -1.250200    4.488900    2.128400
C     -1.357200    5.733100    1.507200
C     -1.558600    6.812200    2.345900
C     -1.633800    6.553500    3.713600
Br    -0.974300    2.950900    1.072400
N     -1.327500    4.281100    3.440200
N     -1.522900    5.333300    4.247300
H     -1.284900    5.829700    0.434500
H     -1.654400    7.818000    1.962600
H     -1.789800    7.346800    4.431400
