22

O      1.225500   -0.000000   -0.000000
C      0.000000   -0.000000   -0.000000
N     -0.713000    0.000000    1.154400
H     -1.712600    0.063700    1.111800
C     -0.806800   -0.008800   -1.275400
C     -0.038900    0.050500    2.435000
H     -0.754300   -0.173300    3.220300
H      0.760300   -0.685200    2.452100
H      0.401600    1.029800    2.616000
H     -1.879900   -0.053500   -1.105800
H     -0.500400   -0.864800   -1.870900
H     -0.569100    0.889100   -1.840600
C      6.449500   -2.903000   -0.591300
C      6.744800   -3.109600    0.756100
C      7.635400   -4.129500    1.030300
C      8.144400   -4.842500   -0.054000
Br     5.244500   -1.534500   -1.072600
N      6.956600   -3.605900   -1.600700
N      7.819900   -4.593800   -1.326300
H      6.296000   -2.500400    1.525900
H      7.928900   -4.369100    2.042400
H      8.845700   -5.654100    0.081900
