22

O      1.225500   -0.000000   -0.000000
C      0.000000   -0.000000   -0.000000
N     -0.713000    0.000000    1.154400
H     -1.712600    0.063700    1.111800
C     -0.806800   -0.008800   -1.275400
C     -0.038900    0.050500    2.435000
H     -0.754300   -0.173300    3.220300
H      0.760300   -0.685200    2.452100
H      0.401600    1.029800    2.616000
H     -1.879900   -0.053500   -1.105800
H     -0.500400   -0.864800   -1.870900
H     -0.569100    0.889100   -1.840600
C      3.405400    4.144100    1.301100
C      2.878200    5.418100    1.511600
C      3.776500    6.383600    1.923300
C      5.104900    5.993200    2.085500
Br     2.262300    2.754000    0.737500
N      4.682200    3.808900    1.466800
N      5.547500    4.751400    1.866400
H      1.829300    5.620900    1.357600
H      3.467400    7.401500    2.113300
H      5.864900    6.692700    2.405000
