22

O      1.225500   -0.000000   -0.000000
C      0.000000   -0.000000   -0.000000
N     -0.713000    0.000000    1.154400
H     -1.712600    0.063700    1.111800
C     -0.806800   -0.008800   -1.275400
C     -0.038900    0.050500    2.435000
H     -0.754300   -0.173300    3.220300
H      0.760300   -0.685200    2.452100
H      0.401600    1.029800    2.616000
H     -1.879900   -0.053500   -1.105800
H     -0.500400   -0.864800   -1.870900
H     -0.569100    0.889100   -1.840600
C      2.521100   -5.381600   -2.295700
C      3.647200   -6.026700   -2.806600
C      3.456500   -7.325200   -3.237900
C      2.172600   -7.855500   -3.121100
Br     2.674800   -3.605800   -1.679700
N      1.309100   -5.922000   -2.200000
N      1.132200   -7.182300   -2.620800
H      4.602900   -5.527300   -2.855000
H      4.266100   -7.910500   -3.649900
H      1.946600   -8.864400   -3.437400
