22

O      1.225500   -0.000000   -0.000000
C      0.000000   -0.000000   -0.000000
N     -0.713000    0.000000    1.154400
H     -1.712600    0.063700    1.111800
C     -0.806800   -0.008800   -1.275400
C     -0.038900    0.050500    2.435000
H     -0.754300   -0.173300    3.220300
H      0.760300   -0.685200    2.452100
H      0.401600    1.029800    2.616000
H     -1.879900   -0.053500   -1.105800
H     -0.500400   -0.864800   -1.870900
H     -0.569100    0.889100   -1.840600
C      4.354800   -4.619900    0.676500
C      5.472500   -3.796700    0.540600
C      6.668100   -4.438500    0.281600
C      6.639100   -5.828800    0.183000
Br     2.673700   -3.842300    1.031300
N      4.366500   -5.946500    0.575500
N      5.530500   -6.561700    0.324100
H      5.391100   -2.724500    0.634900
H      7.591200   -3.890100    0.159600
H      7.534600   -6.400200   -0.017700
