22

O      1.225500   -0.000000   -0.000000
C      0.000000   -0.000000   -0.000000
N     -0.713000    0.000000    1.154400
H     -1.712600    0.063700    1.111800
C     -0.806800   -0.008800   -1.275400
C     -0.038900    0.050500    2.435000
H     -0.754300   -0.173300    3.220300
H      0.760300   -0.685200    2.452100
H      0.401600    1.029800    2.616000
H     -1.879900   -0.053500   -1.105800
H     -0.500400   -0.864800   -1.870900
H     -0.569100    0.889100   -1.840600
C      4.185300   -2.446400    3.611600
C      4.692300   -2.475500    4.910600
C      6.067300   -2.550500    5.021400
C      6.802800   -2.589300    3.837900
Br     2.320300   -2.344500    3.350900
N      4.920900   -2.485300    2.503600
N      6.254300   -2.558100    2.619600
H      4.036100   -2.440600    5.767000
H      6.557900   -2.578300    5.983900
H      7.882300   -2.648200    3.844700
