22

O      1.225500   -0.000000   -0.000000
C      0.000000   -0.000000   -0.000000
N     -0.713000    0.000000    1.154400
H     -1.712600    0.063700    1.111800
C     -0.806800   -0.008800   -1.275400
C     -0.038900    0.050500    2.435000
H     -0.754300   -0.173300    3.220300
H      0.760300   -0.685200    2.452100
H      0.401600    1.029800    2.616000
H     -1.879900   -0.053500   -1.105800
H     -0.500400   -0.864800   -1.870900
H     -0.569100    0.889100   -1.840600
C      5.805600    2.287300   -3.450400
C      7.150200    2.199500   -3.090100
C      8.045300    2.037200   -4.129700
C      7.522000    1.977900   -5.420400
Br     4.502400    2.509900   -2.105500
N      5.343300    2.226300   -4.696500
N      6.218300    2.068700   -5.699600
H      7.456100    2.256900   -2.056500
H      9.108900    1.958900   -3.955100
H      8.160200    1.852300   -6.284100
