22

O      1.225500   -0.000000   -0.000000
C      0.000000   -0.000000   -0.000000
N     -0.713000    0.000000    1.154400
H     -1.712600    0.063700    1.111800
C     -0.806800   -0.008800   -1.275400
C     -0.038900    0.050500    2.435000
H     -0.754300   -0.173300    3.220300
H      0.760300   -0.685200    2.452100
H      0.401600    1.029800    2.616000
H     -1.879900   -0.053500   -1.105800
H     -0.500400   -0.864800   -1.870900
H     -0.569100    0.889100   -1.840600
C      1.683200   -5.600300   -1.460100
C      2.402800   -6.331600   -2.405000
C      2.170900   -7.693400   -2.420100
C      1.251600   -8.195500   -1.500300
Br     1.927100   -3.733100   -1.357300
N      0.812200   -6.116300   -0.596800
N      0.592800   -7.438400   -0.617800
H      3.095300   -5.847400   -3.076600
H      2.678800   -8.347400   -3.114400
H      1.018200   -9.250100   -1.452200
