22

O      1.225500   -0.000000   -0.000000
C      0.000000   -0.000000   -0.000000
N     -0.713000    0.000000    1.154400
H     -1.712600    0.063700    1.111800
C     -0.806800   -0.008800   -1.275400
C     -0.038900    0.050500    2.435000
H     -0.754300   -0.173300    3.220300
H      0.760300   -0.685200    2.452100
H      0.401600    1.029800    2.616000
H     -1.879900   -0.053500   -1.105800
H     -0.500400   -0.864800   -1.870900
H     -0.569100    0.889100   -1.840600
C      3.262000   -1.809500   -5.126800
C      4.028700   -0.730600   -5.566700
C      4.726200   -0.924600   -6.743300
C      4.596000   -2.164600   -7.366600
Br     2.271200   -1.647400   -3.530300
N      3.162500   -2.980500   -5.750500
N      3.842400   -3.160700   -6.891600
H      4.064100    0.193300   -5.009700
H      5.348800   -0.149900   -7.167600
H      5.111200   -2.390200   -8.290000
