22

O      1.225500   -0.000000   -0.000000
C      0.000000   -0.000000   -0.000000
N     -0.713000    0.000000    1.154400
H     -1.712600    0.063700    1.111800
C     -0.806800   -0.008800   -1.275400
C     -0.038900    0.050500    2.435000
H     -0.754300   -0.173300    3.220300
H      0.760300   -0.685200    2.452100
H      0.401600    1.029800    2.616000
H     -1.879900   -0.053500   -1.105800
H     -0.500400   -0.864800   -1.870900
H     -0.569100    0.889100   -1.840600
C      2.653000    5.278700   -1.950000
C      1.461700    5.822400   -2.430100
C      1.577000    7.007900   -3.129800
C      2.857400    7.536900   -3.284700
Br     2.604900    3.661200   -0.981400
N      3.859300    5.814100   -2.118300
N      3.962700    6.964500   -2.798300
H      0.515000    5.333600   -2.256700
H      0.713000    7.509100   -3.542300
H      3.026500    8.460900   -3.819900
