22

O      1.225500   -0.000000   -0.000000
C      0.000000   -0.000000   -0.000000
N     -0.713000    0.000000    1.154400
H     -1.712600    0.063700    1.111800
C     -0.806800   -0.008800   -1.275400
C     -0.038900    0.050500    2.435000
H     -0.754300   -0.173300    3.220300
H      0.760300   -0.685200    2.452100
H      0.401600    1.029800    2.616000
H     -1.879900   -0.053500   -1.105800
H     -0.500400   -0.864800   -1.870900
H     -0.569100    0.889100   -1.840600
C      0.762700   -5.041600   -0.899000
C      0.817600   -5.549500    0.398900
C      0.914000   -6.923300    0.506900
C      0.946300   -7.657000   -0.678000
Br     0.630300   -3.178000   -1.155900
N      0.796200   -5.775400   -2.008300
N      0.889700   -7.107800   -1.895000
H      0.785700   -4.894800    1.256500
H      0.962600   -7.414500    1.468200
H      1.020700   -8.735600   -0.673400
