22

O      1.225500   -0.000000   -0.000000
C      0.000000   -0.000000   -0.000000
N     -0.713000    0.000000    1.154400
H     -1.712600    0.063700    1.111800
C     -0.806800   -0.008800   -1.275400
C     -0.038900    0.050500    2.435000
H     -0.754300   -0.173300    3.220300
H      0.760300   -0.685200    2.452100
H      0.401600    1.029800    2.616000
H     -1.879900   -0.053500   -1.105800
H     -0.500400   -0.864800   -1.870900
H     -0.569100    0.889100   -1.840600
C      0.387300   -5.048000   -1.129600
C      0.434700   -5.725300    0.088700
C      0.248000   -7.092800    0.027800
C      0.033400   -7.653300   -1.230400
Br     0.630300   -3.178000   -1.155900
N      0.179700   -5.618900   -2.313300
N     -0.000600   -6.946200   -2.363900
H      0.607700   -5.197900    1.014500
H      0.266600   -7.707700    0.916200
H     -0.120600   -8.715900   -1.357300
