22

O      1.225500   -0.000000   -0.000000
C      0.000000   -0.000000   -0.000000
N     -0.713000    0.000000    1.154400
H     -1.712600    0.063700    1.111800
C     -0.806800   -0.008800   -1.275400
C     -0.038900    0.050500    2.435000
H     -0.754300   -0.173300    3.220300
H      0.760300   -0.685200    2.452100
H      0.401600    1.029800    2.616000
H     -1.879900   -0.053500   -1.105800
H     -0.500400   -0.864800   -1.870900
H     -0.569100    0.889100   -1.840600
C      0.141900    5.565200   -0.734400
C      1.086000    6.051400   -1.638700
C      1.620300    7.291400   -1.346600
C      1.168200    7.926100   -0.190800
Br    -0.648400    3.880700   -1.041800
N     -0.265300    6.201700    0.360600
N      0.258000    7.404400    0.637000
H      1.370900    5.480600   -2.509400
H      2.358900    7.755100   -1.984700
H      1.540100    8.897900    0.103100
