22

O      1.225500   -0.000000   -0.000000
C      0.000000   -0.000000   -0.000000
N     -0.713000    0.000000    1.154400
H     -1.712600    0.063700    1.111800
C     -0.806800   -0.008800   -1.275400
C     -0.038900    0.050500    2.435000
H     -0.754300   -0.173300    3.220300
H      0.760300   -0.685200    2.452100
H      0.401600    1.029800    2.616000
H     -1.879900   -0.053500   -1.105800
H     -0.500400   -0.864800   -1.870900
H     -0.569100    0.889100   -1.840600
C     -0.759500   -5.357900    2.139100
C     -2.014000   -5.966300    2.178200
C     -2.014700   -7.344500    2.273600
C     -0.776200   -7.982600    2.320800
Br    -0.648500   -3.479700    2.009300
N      0.403600   -6.002100    2.186500
N      0.394300   -7.339300    2.279100
H     -2.920000   -5.381100    2.135500
H     -2.935000   -7.909800    2.310600
H     -0.696900   -9.058300    2.395500
