22

O      1.225500   -0.000000   -0.000000
C      0.000000   -0.000000   -0.000000
N     -0.713000    0.000000    1.154400
H     -1.712600    0.063700    1.111800
C     -0.806800   -0.008800   -1.275400
C     -0.038900    0.050500    2.435000
H     -0.754300   -0.173300    3.220300
H      0.760300   -0.685200    2.452100
H      0.401600    1.029800    2.616000
H     -1.879900   -0.053500   -1.105800
H     -0.500400   -0.864800   -1.870900
H     -0.569100    0.889100   -1.840600
C      3.742100    2.991900    1.494300
C      3.573700    3.925400    0.471700
C      3.962300    5.218500    0.763600
C      4.478100    5.459200    2.036100
Br     3.242300    1.197800    1.197600
N      4.239200    3.260100    2.698900
N      4.613900    4.517200    2.974300
H      3.162900    3.638300   -0.484300
H      3.872300    6.014900    0.038700
H      4.803100    6.445400    2.337300
