22

O      1.225500   -0.000000   -0.000000
C      0.000000   -0.000000   -0.000000
N     -0.713000    0.000000    1.154400
H     -1.712600    0.063700    1.111800
C     -0.806800   -0.008800   -1.275400
C     -0.038900    0.050500    2.435000
H     -0.754300   -0.173300    3.220300
H      0.760300   -0.685200    2.452100
H      0.401600    1.029800    2.616000
H     -1.879900   -0.053500   -1.105800
H     -0.500400   -0.864800   -1.870900
H     -0.569100    0.889100   -1.840600
C     -2.810900   -4.391700    2.206600
C     -3.262100   -4.594900    0.902500
C     -4.186300   -5.607600    0.733500
C     -4.571700   -6.317500    1.869600
Br    -1.547500   -3.033000    2.544800
N     -3.202900   -5.091400    3.268000
N     -4.100000   -6.072400    3.095700
H     -2.900800   -3.988500    0.085800
H     -4.597100   -5.844000   -0.237700
H     -5.290400   -7.123500    1.816000
