22

O      1.225500   -0.000000   -0.000000
C      0.000000   -0.000000   -0.000000
N     -0.713000    0.000000    1.154400
H     -1.712600    0.063700    1.111800
C     -0.806800   -0.008800   -1.275400
C     -0.038900    0.050500    2.435000
H     -0.754300   -0.173300    3.220300
H      0.760300   -0.685200    2.452100
H      0.401600    1.029800    2.616000
H     -1.879900   -0.053500   -1.105800
H     -0.500400   -0.864800   -1.870900
H     -0.569100    0.889100   -1.840600
C      5.895500   -2.473900    1.085800
C      7.175700   -3.026900    1.110200
C      7.237800   -4.406600    1.142700
C      6.029000   -5.100900    1.147900
Br     5.701000   -0.598600    1.040600
N      4.762300   -3.170900    1.091800
N      4.831000   -4.509200    1.123400
H      8.054800   -2.400500    1.103600
H      8.182200   -4.931300    1.163400
H      5.997600   -6.181300    1.172700
