22

O      1.225500   -0.000000   -0.000000
C      0.000000   -0.000000   -0.000000
N     -0.713000    0.000000    1.154400
H     -1.712600    0.063700    1.111800
C     -0.806800   -0.008800   -1.275400
C     -0.038900    0.050500    2.435000
H     -0.754300   -0.173300    3.220300
H      0.760300   -0.685200    2.452100
H      0.401600    1.029800    2.616000
H     -1.879900   -0.053500   -1.105800
H     -0.500400   -0.864800   -1.870900
H     -0.569100    0.889100   -1.840600
C      1.519700    3.396900   -4.614900
C      1.988800    4.685600   -4.869200
C      2.760800    4.834700   -6.005100
C      2.991500    3.695800   -6.775300
Br     0.456400    3.086400   -3.088600
N      1.761500    2.332200   -5.375300
N      2.511300    2.485200   -6.475700
H      1.753800    5.505900   -4.208200
H      3.171600    5.792800   -6.289700
H      3.585800    3.734300   -7.677600
