22

O      1.225500   -0.000000   -0.000000
C      0.000000   -0.000000   -0.000000
N     -0.713000    0.000000    1.154400
H     -1.712600    0.063700    1.111800
C     -0.806800   -0.008800   -1.275400
C     -0.038900    0.050500    2.435000
H     -0.754300   -0.173300    3.220300
H      0.760300   -0.685200    2.452100
H      0.401600    1.029800    2.616000
H     -1.879900   -0.053500   -1.105800
H     -0.500400   -0.864800   -1.870900
H     -0.569100    0.889100   -1.840600
C      4.382400   -3.459500   -1.045000
C      4.173000   -3.821500    0.285700
C      3.278900   -4.852900    0.498000
C      2.681800   -5.422800   -0.625400
Br     5.584600   -2.062000   -1.442900
N      3.792500   -4.028300   -2.093100
N      2.926300   -5.028500   -1.878600
H      4.686600   -3.316000    1.089300
H      3.048100   -5.207500    1.492400
H      1.972100   -6.233900   -0.538400
