22

O      1.225500   -0.000000   -0.000000
C      0.000000   -0.000000   -0.000000
N     -0.713000    0.000000    1.154400
H     -1.712600    0.063700    1.111800
C     -0.806800   -0.008800   -1.275400
C     -0.038900    0.050500    2.435000
H     -0.754300   -0.173300    3.220300
H      0.760300   -0.685200    2.452100
H      0.401600    1.029800    2.616000
H     -1.879900   -0.053500   -1.105800
H     -0.500400   -0.864800   -1.870900
H     -0.569100    0.889100   -1.840600
C      2.660600    1.439400    4.494700
C      2.609300    2.259300    5.621800
C      2.397100    3.603300    5.382600
C      2.256900    4.001800    4.054200
Br     2.946100   -0.412000    4.712500
N      2.522000    1.857400    3.239200
N      2.316300    3.163000    3.015500
H      2.730200    1.852400    6.614300
H      2.341200    4.320700    6.188800
H      2.088500    5.036300    3.788900
