22

O      1.225500   -0.000000   -0.000000
C      0.000000   -0.000000   -0.000000
N     -0.713000    0.000000    1.154400
H     -1.712600    0.063700    1.111800
C     -0.806800   -0.008800   -1.275400
C     -0.038900    0.050500    2.435000
H     -0.754300   -0.173300    3.220300
H      0.760300   -0.685200    2.452100
H      0.401600    1.029800    2.616000
H     -1.879900   -0.053500   -1.105800
H     -0.500400   -0.864800   -1.870900
H     -0.569100    0.889100   -1.840600
C     -1.710300    4.962000   -2.385100
C     -1.690300    5.784500   -1.258800
C     -1.901900    7.130100   -1.489000
C     -2.112000    7.527600   -2.808600
Br    -1.431900    3.108200   -2.179000
N     -1.914500    5.379100   -3.631800
N     -2.119000    6.686300   -3.846900
H     -1.518500    5.378200   -0.273600
H     -1.905500    7.849600   -0.682700
H     -2.284400    8.563300   -3.066500
