22

O      1.225500   -0.000000   -0.000000
C      0.000000   -0.000000   -0.000000
N     -0.713000    0.000000    1.154400
H     -1.712600    0.063700    1.111800
C     -0.806800   -0.008800   -1.275400
C     -0.038900    0.050500    2.435000
H     -0.754300   -0.173300    3.220300
H      0.760300   -0.685200    2.452100
H      0.401600    1.029800    2.616000
H     -1.879900   -0.053500   -1.105800
H     -0.500400   -0.864800   -1.870900
H     -0.569100    0.889100   -1.840600
C     -2.581200   -4.430600    1.234900
C     -2.666300   -4.936500   -0.062100
C     -2.854600   -6.301000   -0.167700
C     -2.940000   -7.028200    1.018600
Br    -2.324300   -2.579600    1.488500
N     -2.667400   -5.158100    2.345500
N     -2.850200   -6.481300    2.234600
H     -2.587700   -4.287300   -0.920900
H     -2.933300   -6.789800   -1.128200
H     -3.086900   -8.099300    1.015900
