22

O      1.225500   -0.000000   -0.000000
C      0.000000   -0.000000   -0.000000
N     -0.713000    0.000000    1.154400
H     -1.712600    0.063700    1.111800
C     -0.806800   -0.008800   -1.275400
C     -0.038900    0.050500    2.435000
H     -0.754300   -0.173300    3.220300
H      0.760300   -0.685200    2.452100
H      0.401600    1.029800    2.616000
H     -1.879900   -0.053500   -1.105800
H     -0.500400   -0.864800   -1.870900
H     -0.569100    0.889100   -1.840600
C     -2.611800   -4.739000   -0.675400
C     -2.724300   -5.348500    0.574200
C     -2.934800   -6.713800    0.564000
C     -3.012900   -7.339400   -0.679300
Br    -2.323300   -2.877800   -0.771600
N     -2.692000   -5.371000   -1.843400
N     -2.896400   -6.695800   -1.844600
H     -2.649100   -4.773600    1.484700
H     -3.035400   -7.278800    1.479700
H     -3.175900   -8.404600   -0.767100
