22

O      1.225500   -0.000000   -0.000000
C      0.000000   -0.000000   -0.000000
N     -0.713000    0.000000    1.154400
H     -1.712600    0.063700    1.111800
C     -0.806800   -0.008800   -1.275400
C     -0.038900    0.050500    2.435000
H     -0.754300   -0.173300    3.220300
H      0.760300   -0.685200    2.452100
H      0.401600    1.029800    2.616000
H     -1.879900   -0.053500   -1.105800
H     -0.500400   -0.864800   -1.870900
H     -0.569100    0.889100   -1.840600
C      6.072700    3.702700   -2.189100
C      6.488800    4.928900   -1.670700
C      7.441200    5.605200   -2.408200
C      7.886500    5.002200   -3.583500
Br     4.775200    2.699600   -1.258100
N      6.522000    3.158400   -3.316900
N      7.446100    3.821000   -4.026800
H      6.081200    5.312000   -0.747500
H      7.828600    6.563100   -2.091500
H      8.630200    5.471000   -4.212900
