22

O      1.225500   -0.000000   -0.000000
C      0.000000   -0.000000   -0.000000
N     -0.713000    0.000000    1.154400
H     -1.712600    0.063700    1.111800
C     -0.806800   -0.008800   -1.275400
C     -0.038900    0.050500    2.435000
H     -0.754300   -0.173300    3.220300
H      0.760300   -0.685200    2.452100
H      0.401600    1.029800    2.616000
H     -1.879900   -0.053500   -1.105800
H     -0.500400   -0.864800   -1.870900
H     -0.569100    0.889100   -1.840600
C     -0.174900   -5.203100    4.134800
C      0.763500   -6.015100    4.771800
C      0.304500   -7.243800    5.205400
C     -1.035000   -7.546600    4.966200
Br     0.350400   -3.505000    3.504800
N     -1.447900   -5.527600    3.924300
N     -1.885400   -6.721600    4.348100
H      1.782900   -5.688100    4.909500
H      0.953200   -7.945500    5.710000
H     -1.465900   -8.488500    5.276200
