22

O      1.225500   -0.000000   -0.000000
C      0.000000   -0.000000   -0.000000
N     -0.713000    0.000000    1.154400
H     -1.712600    0.063700    1.111800
C     -0.806800   -0.008800   -1.275400
C     -0.038900    0.050500    2.435000
H     -0.754300   -0.173300    3.220300
H      0.760300   -0.685200    2.452100
H      0.401600    1.029800    2.616000
H     -1.879900   -0.053500   -1.105800
H     -0.500400   -0.864800   -1.870900
H     -0.569100    0.889100   -1.840600
C      1.220300    5.199400    2.811900
C      1.442800    5.932600    3.977400
C      2.033200    7.170300    3.809500
C      2.344100    7.558900    2.507400
Br     0.419100    3.496400    2.931900
N      1.531500    5.604800    1.583500
N      2.104000    6.806900    1.429100
H      1.164700    5.542100    4.944500
H      2.247400    7.814900    4.649900
H      2.807300    8.513000    2.297400
