22

O      1.225500   -0.000000   -0.000000
C      0.000000   -0.000000   -0.000000
N     -0.713000    0.000000    1.154400
H     -1.712600    0.063700    1.111800
C     -0.806800   -0.008800   -1.275400
C     -0.038900    0.050500    2.435000
H     -0.754300   -0.173300    3.220300
H      0.760300   -0.685200    2.452100
H      0.401600    1.029800    2.616000
H     -1.879900   -0.053500   -1.105800
H     -0.500400   -0.864800   -1.870900
H     -0.569100    0.889100   -1.840600
C     -1.475900   -6.159100   -0.958600
C     -0.421400   -6.894800   -1.499100
C     -0.630400   -8.255400   -1.615100
C     -1.860000   -8.752100   -1.185400
Br    -1.291600   -4.293000   -0.757600
N     -2.637500   -6.669900   -0.558800
N     -2.832500   -7.991000   -0.674700
H      0.496200   -6.414500   -1.803500
H      0.125000   -8.912500   -2.021600
H     -2.096300   -9.805500   -1.244700
