22

O      1.225500   -0.000000   -0.000000
C      0.000000   -0.000000   -0.000000
N     -0.713000    0.000000    1.154400
H     -1.712600    0.063700    1.111800
C     -0.806800   -0.008800   -1.275400
C     -0.038900    0.050500    2.435000
H     -0.754300   -0.173300    3.220300
H      0.760300   -0.685200    2.452100
H      0.401600    1.029800    2.616000
H     -1.879900   -0.053500   -1.105800
H     -0.500400   -0.864800   -1.870900
H     -0.569100    0.889100   -1.840600
C      6.458600    1.313700   -3.045500
C      5.589600    2.082100   -3.819900
C      6.153800    3.163100   -4.469200
C      7.519500    3.376000   -4.288200
Br     5.787800   -0.185000   -2.117800
N      7.759600    1.548800   -2.896600
N      8.299500    2.599600   -3.530000
H      4.542000    1.833600   -3.896600
H      5.565100    3.820100   -5.093300
H      8.031200    4.201100   -4.763900
