22

O      1.225500   -0.000000   -0.000000
C      0.000000   -0.000000   -0.000000
N     -0.713000    0.000000    1.154400
H     -1.712600    0.063700    1.111800
C     -0.806800   -0.008800   -1.275400
C     -0.038900    0.050500    2.435000
H     -0.754300   -0.173300    3.220300
H      0.760300   -0.685200    2.452100
H      0.401600    1.029800    2.616000
H     -1.879900   -0.053500   -1.105800
H     -0.500400   -0.864800   -1.870900
H     -0.569100    0.889100   -1.840600
C      5.967100    1.671900   -3.620600
C      7.174100    2.308100   -3.910400
C      7.229500    2.978800   -5.116800
C      6.087200    2.953600   -5.915300
Br     5.787800    0.728000   -1.997800
N      4.896100    1.670100   -4.409900
N      4.957900    2.323200   -5.578800
H      8.005100    2.269000   -3.222600
H      8.119600    3.503400   -5.433500
H      6.055100    3.455400   -6.872400
