22

O      1.225500   -0.000000   -0.000000
C      0.000000   -0.000000   -0.000000
N     -0.713000    0.000000    1.154400
H     -1.712600    0.063700    1.111800
C     -0.806800   -0.008800   -1.275400
C     -0.038900    0.050500    2.435000
H     -0.754300   -0.173300    3.220300
H      0.760300   -0.685200    2.452100
H      0.401600    1.029800    2.616000
H     -1.879900   -0.053500   -1.105800
H     -0.500400   -0.864800   -1.870900
H     -0.569100    0.889100   -1.840600
C      3.601200   -5.405800    0.314600
C      2.298800   -5.837900    0.064600
C      2.171800   -7.123500   -0.424700
C      3.344200   -7.852600   -0.617900
Br     3.883500   -3.665600    0.984500
N      4.698000   -6.132400    0.117300
N      4.566400   -7.378900   -0.357800
H      1.452000   -5.194100    0.247900
H      1.205500   -7.551500   -0.650300
H      3.324500   -8.864700   -0.997700
