22

O      1.224000    0.000000    0.000000
C      0.000000    0.000000    0.000000
N     -0.718000    0.000000    1.154000
H     -1.717000    0.061000    1.108000
C     -0.809000   -0.010000   -1.276000
C     -0.049000    0.046000    2.436000
H     -0.777000   -0.133000    3.221000
H      0.720000   -0.720000    2.476000
H      0.429000    1.010000    2.602000
H     -1.882000   -0.038000   -1.106000
H     -0.515000   -0.876000   -1.863000
H     -0.559000    0.879000   -1.850000
C     -1.291600   -3.619700   -1.026900
C     -2.658000   -3.389000   -0.868500
C     -3.160700   -3.584800    0.403300
C     -2.263000   -3.988800    1.390300
Br    -0.506100   -3.380700   -2.724700
N     -0.464900   -4.005500   -0.058500
N     -0.960400   -4.193300    1.172700
H     -3.271600   -3.076700   -1.699800
H     -4.206400   -3.432500    0.629300
H     -2.582400   -4.161900    2.408600
