22

O      1.224000    0.000000    0.000000
C      0.000000    0.000000    0.000000
N     -0.718000    0.000000    1.154000
H     -1.717000    0.061000    1.108000
C     -0.809000   -0.010000   -1.276000
C     -0.049000    0.046000    2.436000
H     -0.777000   -0.133000    3.221000
H      0.720000   -0.720000    2.476000
H      0.429000    1.010000    2.602000
H     -1.882000   -0.038000   -1.106000
H     -0.515000   -0.876000   -1.863000
H     -0.559000    0.879000   -1.850000
C     -1.113100   -3.659000    0.112200
C     -0.945500   -3.353900   -1.238500
C     -2.076700   -2.926600   -1.906600
C     -3.259300   -2.843800   -1.173200
Br     0.369900   -4.251500    1.115300
N     -2.260600   -3.567200    0.779200
N     -3.353600   -3.151800    0.123800
H      0.016800   -3.451300   -1.717700
H     -2.051400   -2.666000   -2.955000
H     -4.184600   -2.517700   -1.627400
