22

O      1.224000    0.000000    0.000000
C      0.000000    0.000000    0.000000
N     -0.718000    0.000000    1.154000
H     -1.717000    0.061000    1.108000
C     -0.809000   -0.010000   -1.276000
C     -0.049000    0.046000    2.436000
H     -0.777000   -0.133000    3.221000
H      0.720000   -0.720000    2.476000
H      0.429000    1.010000    2.602000
H     -1.882000   -0.038000   -1.106000
H     -0.515000   -0.876000   -1.863000
H     -0.559000    0.879000   -1.850000
C      0.497900   -3.766600    2.819800
C     -0.006600   -4.373100    1.669500
C     -1.366200   -4.617400    1.661500
C     -2.090500   -4.238000    2.790600
Br     2.342400   -3.389900    2.931200
N     -0.226600   -3.418300    3.879900
N     -1.545200   -3.658700    3.864400
H      0.640000   -4.629700    0.844100
H     -1.853700   -5.083400    0.817100
H     -3.157800   -4.396900    2.857500
