22

O      1.224000    0.000000    0.000000
C      0.000000    0.000000    0.000000
N     -0.718000    0.000000    1.154000
H     -1.717000    0.061000    1.108000
C     -0.809000   -0.010000   -1.276000
C     -0.049000    0.046000    2.436000
H     -0.777000   -0.133000    3.221000
H      0.720000   -0.720000    2.476000
H      0.429000    1.010000    2.602000
H     -1.882000   -0.038000   -1.106000
H     -0.515000   -0.876000   -1.863000
H     -0.559000    0.879000   -1.850000
C     -1.678300   -1.330700   -3.361700
C     -2.712800   -0.428600   -3.113400
C     -2.635200    0.778700   -3.780300
C     -1.543700    0.973200   -4.625300
Br    -1.690300   -3.008400   -2.500400
N     -0.650700   -1.108600   -4.177000
N     -0.582700    0.065300   -4.820400
H     -3.518000   -0.674600   -2.437900
H     -3.387300    1.544600   -3.655700
H     -1.415000    1.892000   -5.180400
