22

O      1.224000    0.000000    0.000000
C      0.000000    0.000000    0.000000
N     -0.718000    0.000000    1.154000
H     -1.717000    0.061000    1.108000
C     -0.809000   -0.010000   -1.276000
C     -0.049000    0.046000    2.436000
H     -0.777000   -0.133000    3.221000
H      0.720000   -0.720000    2.476000
H      0.429000    1.010000    2.602000
H     -1.882000   -0.038000   -1.106000
H     -0.515000   -0.876000   -1.863000
H     -0.559000    0.879000   -1.850000
C      4.365700   -0.075000   -2.187300
C      4.075900   -0.117800   -3.551000
C      4.026900    1.102300   -4.197200
C      4.269100    2.241600   -3.431200
Br     4.456000   -1.686600   -1.212100
N      4.591500    1.034700   -1.489000
N      4.542100    2.214500   -2.123300
H      3.903000   -1.056000   -4.056000
H      3.810200    1.176200   -5.253300
H      4.247900    3.230800   -3.866900
