22

O      1.224000    0.000000    0.000000
C      0.000000    0.000000    0.000000
N     -0.718000    0.000000    1.154000
H     -1.717000    0.061000    1.108000
C     -0.809000   -0.010000   -1.276000
C     -0.049000    0.046000    2.436000
H     -0.777000   -0.133000    3.221000
H      0.720000   -0.720000    2.476000
H      0.429000    1.010000    2.602000
H     -1.882000   -0.038000   -1.106000
H     -0.515000   -0.876000   -1.863000
H     -0.559000    0.879000   -1.850000
C      0.739000   -2.438300    2.893700
C     -0.557400   -2.098700    2.506800
C     -1.334400   -1.484800    3.470000
C     -0.752700   -1.268200    4.718200
Br     1.881600   -3.281000    1.652400
N      1.260000   -2.214900    4.097300
N      0.499500   -1.618700    5.026300
H     -0.916300   -2.309900    1.511000
H     -2.352400   -1.182700    3.269300
H     -1.298500   -0.793300    5.521600
