22

O      1.224000    0.000000    0.000000
C      0.000000    0.000000    0.000000
N     -0.718000    0.000000    1.154000
H     -1.717000    0.061000    1.108000
C     -0.809000   -0.010000   -1.276000
C     -0.049000    0.046000    2.436000
H     -0.777000   -0.133000    3.221000
H      0.720000   -0.720000    2.476000
H      0.429000    1.010000    2.602000
H     -1.882000   -0.038000   -1.106000
H     -0.515000   -0.876000   -1.863000
H     -0.559000    0.879000   -1.850000
C      4.162100    1.427700   -4.293500
C      5.274900    0.841800   -4.896600
C      5.693400    1.416600   -6.081000
C      4.970500    2.512300   -6.550200
Br     3.510400    0.718000   -2.672300
N      3.496900    2.475500   -4.772700
N      3.909200    3.027600   -5.922500
H      5.767900   -0.009200   -4.451600
H      6.545800    1.036400   -6.625700
H      5.238000    3.014500   -7.469500
