22

O      1.224000    0.000000    0.000000
C      0.000000    0.000000    0.000000
N     -0.718000    0.000000    1.154000
H     -1.717000    0.061000    1.108000
C     -0.809000   -0.010000   -1.276000
C     -0.049000    0.046000    2.436000
H     -0.777000   -0.133000    3.221000
H      0.720000   -0.720000    2.476000
H      0.429000    1.010000    2.602000
H     -1.882000   -0.038000   -1.106000
H     -0.515000   -0.876000   -1.863000
H     -0.559000    0.879000   -1.850000
C      0.434400    1.029200   -4.302700
C     -0.934200    1.044700   -4.034000
C     -1.724600    0.289300   -4.878400
C     -1.083600   -0.405300   -5.903000
Br     1.601100    2.028000   -3.208300
N      1.010700    0.352200   -5.292500
N      0.236800   -0.378300   -6.107400
H     -1.335300    1.617700   -3.211900
H     -2.796800    0.235500   -4.754200
H     -1.635500   -1.017100   -6.603000
