22

O      1.224000    0.000000    0.000000
C      0.000000    0.000000    0.000000
N     -0.718000    0.000000    1.154000
H     -1.717000    0.061000    1.108000
C     -0.809000   -0.010000   -1.276000
C     -0.049000    0.046000    2.436000
H     -0.777000   -0.133000    3.221000
H      0.720000   -0.720000    2.476000
H      0.429000    1.010000    2.602000
H     -1.882000   -0.038000   -1.106000
H     -0.515000   -0.876000   -1.863000
H     -0.559000    0.879000   -1.850000
C      1.718300    1.551900   -4.321200
C      1.924300    2.032100   -5.614400
C      0.835500    2.632000   -6.217100
C     -0.346900    2.697200   -5.481600
Br     3.141800    0.715500   -3.409800
N      0.572400    1.632700   -3.650100
N     -0.479300    2.216200   -4.241800
H      2.882800    1.933000   -6.100800
H      0.892600    3.036000   -7.217700
H     -1.240400    3.151700   -5.886500
