22

O      1.225500   -0.000000   -0.000000
C      0.000000   -0.000000   -0.000000
N     -0.713000    0.000000    1.154400
H     -1.712600    0.063700    1.111800
C     -0.806800   -0.008800   -1.275400
C     -0.038900    0.050500    2.435000
H     -0.754300   -0.173300    3.220300
H      0.760300   -0.685200    2.452100
H      0.401600    1.029800    2.616000
H     -1.879900   -0.053500   -1.105800
H     -0.500400   -0.864800   -1.870900
H     -0.569100    0.889100   -1.840600
C      0.441100   -6.484100   -2.157700
C      0.466200   -6.846600   -3.504400
C      0.532100   -8.201800   -3.764500
C      0.566400   -9.062200   -2.668200
Br     0.351700   -4.658000   -1.695200
N      0.475400   -7.336300   -1.136700
N      0.539200   -8.649600   -1.397400
H      0.435500   -6.100800   -4.284100
H      0.556200   -8.584700   -4.774700
H      0.618000  -10.134900   -2.792700
