22

O      1.225500   -0.000000   -0.000000
C      0.000000   -0.000000   -0.000000
N     -0.713000    0.000000    1.154400
H     -1.712600    0.063700    1.111800
C     -0.806800   -0.008800   -1.275400
C     -0.038900    0.050500    2.435000
H     -0.754300   -0.173300    3.220300
H      0.760300   -0.685200    2.452100
H      0.401600    1.029800    2.616000
H     -1.879900   -0.053500   -1.105800
H     -0.500400   -0.864800   -1.870900
H     -0.569100    0.889100   -1.840600
C      3.808700    4.353500   -4.046200
C      4.813100    5.070300   -3.396000
C      5.499900    5.985900   -4.169500
C      5.125400    6.101200   -5.507300
Br     2.811100    3.078300   -3.079100
N      3.479300    4.491600   -5.327800
N      4.150500    5.382100   -6.071600
H      5.028100    4.907300   -2.350800
H      6.296000    6.590700   -3.759300
H      5.616800    6.795900   -6.174200
