22

O      1.225500   -0.000000   -0.000000
C      0.000000   -0.000000   -0.000000
N     -0.713000    0.000000    1.154400
H     -1.712600    0.063700    1.111800
C     -0.806800   -0.008800   -1.275400
C     -0.038900    0.050500    2.435000
H     -0.754300   -0.173300    3.220300
H      0.760300   -0.685200    2.452100
H      0.401600    1.029800    2.616000
H     -1.879900   -0.053500   -1.105800
H     -0.500400   -0.864800   -1.870900
H     -0.569100    0.889100   -1.840600
C      4.616400    3.448700    4.503100
C      4.976200    4.596900    3.797700
C      5.689400    5.543700    4.507200
C      5.975200    5.260900    5.842000
Br     3.640500    2.094400    3.625600
N      4.908000    3.214000    5.779800
N      5.600300    4.137600    6.461300
H      4.705900    4.722500    2.760200
H      6.014900    6.467600    4.051000
H      6.529000    5.953300    6.460700
