22

O      1.225500   -0.000000   -0.000000
C      0.000000   -0.000000   -0.000000
N     -0.713000    0.000000    1.154400
H     -1.712600    0.063700    1.111800
C     -0.806800   -0.008800   -1.275400
C     -0.038900    0.050500    2.435000
H     -0.754300   -0.173300    3.220300
H      0.760300   -0.685200    2.452100
H      0.401600    1.029800    2.616000
H     -1.879900   -0.053500   -1.105800
H     -0.500400   -0.864800   -1.870900
H     -0.569100    0.889100   -1.840600
C     -3.014900   -3.813000    3.115500
C     -3.161500   -4.018800    4.487200
C     -3.441400   -5.314000    4.877700
C     -3.548300   -6.275400    3.873800
Br    -2.631400   -2.080000    2.478100
N     -3.124400   -4.758100    2.185500
N     -3.396100   -6.012300    2.572500
H     -3.059300   -3.204300    5.188100
H     -3.573100   -5.576800    5.917600
H     -3.765300   -7.309600    4.102200
