22

O      1.225500   -0.000000   -0.000000
C      0.000000   -0.000000   -0.000000
N     -0.713000    0.000000    1.154400
H     -1.712600    0.063700    1.111800
C     -0.806800   -0.008800   -1.275400
C     -0.038900    0.050500    2.435000
H     -0.754300   -0.173300    3.220300
H      0.760300   -0.685200    2.452100
H      0.401600    1.029800    2.616000
H     -1.879900   -0.053500   -1.105800
H     -0.500400   -0.864800   -1.870900
H     -0.569100    0.889100   -1.840600
C     -4.950100    3.027000   -0.175500
C     -5.794900    3.362400    0.882500
C     -6.957400    4.026000    0.540800
C     -7.168300    4.291300   -0.811400
Br    -3.336800    2.119000    0.184000
N     -5.186100    3.297800   -1.456600
N     -6.316300    3.941900   -1.779800
H     -5.540900    3.111400    1.901100
H     -7.677400    4.329300    1.287400
H     -8.054500    4.806500   -1.155000
