22

O      1.225500   -0.000000   -0.000000
C      0.000000   -0.000000   -0.000000
N     -0.713000    0.000000    1.154400
H     -1.712600    0.063700    1.111800
C     -0.806800   -0.008800   -1.275400
C     -0.038900    0.050500    2.435000
H     -0.754300   -0.173300    3.220300
H      0.760300   -0.685200    2.452100
H      0.401600    1.029800    2.616000
H     -1.879900   -0.053500   -1.105800
H     -0.500400   -0.864800   -1.870900
H     -0.569100    0.889100   -1.840600
C      2.456900    3.984300    5.035700
C      2.091800    5.287800    5.371900
C      3.047000    6.030200    6.038900
C      4.266500    5.410200    6.306600
Br     1.224200    2.887000    4.123100
N      3.633300    3.426200    5.308900
N      4.554800    4.153200    5.956400
H      1.117600    5.677800    5.118800
H      2.861700    7.050500    6.343000
H      5.062200    5.927400    6.824600
