22

O      1.225500   -0.000000   -0.000000
C      0.000000   -0.000000   -0.000000
N     -0.713000    0.000000    1.154400
H     -1.712600    0.063700    1.111800
C     -0.806800   -0.008800   -1.275400
C     -0.038900    0.050500    2.435000
H     -0.754300   -0.173300    3.220300
H      0.760300   -0.685200    2.452100
H      0.401600    1.029800    2.616000
H     -1.879900   -0.053500   -1.105800
H     -0.500400   -0.864800   -1.870900
H     -0.569100    0.889100   -1.840600
C     -0.716000   -4.205600    5.088900
C      0.401700   -4.845100    5.624900
C      0.162700   -5.683000    6.696900
C     -1.156300   -5.805000    7.131300
Br    -0.497600   -3.040000    3.622600
N     -1.962500   -4.347400    5.531900
N     -2.186200   -5.162300    6.572400
H      1.387200   -4.683900    5.215100
H      0.961900   -6.224400    7.182600
H     -1.420900   -6.441800    7.964000
