22

O      1.225500   -0.000000   -0.000000
C      0.000000   -0.000000   -0.000000
N     -0.713000    0.000000    1.154400
H     -1.712600    0.063700    1.111800
C     -0.806800   -0.008800   -1.275400
C     -0.038900    0.050500    2.435000
H     -0.754300   -0.173300    3.220300
H      0.760300   -0.685200    2.452100
H      0.401600    1.029800    2.616000
H     -1.879900   -0.053500   -1.105800
H     -0.500400   -0.864800   -1.870900
H     -0.569100    0.889100   -1.840600
C      4.340400   -1.143300   -5.793700
C      4.624400    0.050900   -6.456000
C      5.131500   -0.072900   -7.735100
C      5.306900   -1.363900   -8.231000
Br     3.644100   -1.084100   -4.042100
N      4.521700   -2.359800   -6.301100
N      5.014200   -2.471400   -7.542800
H      4.452500    1.006100   -5.983400
H      5.383500    0.792400   -8.331300
H      5.698900   -1.540100   -9.223000
