22

O      1.225500   -0.000000   -0.000000
C      0.000000   -0.000000   -0.000000
N     -0.713000    0.000000    1.154400
H     -1.712600    0.063700    1.111800
C     -0.806800   -0.008800   -1.275400
C     -0.038900    0.050500    2.435000
H     -0.754300   -0.173300    3.220300
H      0.760300   -0.685200    2.452100
H      0.401600    1.029800    2.616000
H     -1.879900   -0.053500   -1.105800
H     -0.500400   -0.864800   -1.870900
H     -0.569100    0.889100   -1.840600
C      5.256500    2.564200   -3.617700
C      5.595100    3.897800   -3.389100
C      6.167100    4.567300   -4.453600
C      6.346900    3.851900   -5.636400
Br     4.469400    1.560800   -2.228300
N      5.444000    1.914200   -4.763200
N      5.999600    2.570800   -5.791300
H      5.414400    4.363700   -2.432300
H      6.464800    5.603300   -4.377800
H      6.787900    4.308300   -6.511800
