22

O      1.224000    0.000000    0.000000
C      0.000000    0.000000    0.000000
N     -0.718000    0.000000    1.154000
H     -1.717000    0.061000    1.108000
C     -0.809000   -0.010000   -1.276000
C     -0.049000    0.046000    2.436000
H     -0.777000   -0.133000    3.221000
H      0.720000   -0.720000    2.476000
H      0.429000    1.010000    2.602000
H     -1.882000   -0.038000   -1.106000
H     -0.515000   -0.876000   -1.863000
H     -0.559000    0.879000   -1.850000
C     -0.266300    4.721700   -0.684800
C     -1.109100    5.831300   -0.747700
C     -1.321200    6.358800   -2.006700
C     -0.679400    5.737200   -3.076700
Br     0.088500    3.925900    0.987700
N      0.329600    4.155100   -1.730800
N      0.118700    4.673000   -2.949000
H     -1.560500    6.240800    0.143300
H     -1.957700    7.218300   -2.161500
H     -0.797100    6.093100   -4.090800
