22

O      1.224000    0.000000    0.000000
C      0.000000    0.000000    0.000000
N     -0.718000    0.000000    1.154000
H     -1.717000    0.061000    1.108000
C     -0.809000   -0.010000   -1.276000
C     -0.049000    0.046000    2.436000
H     -0.777000   -0.133000    3.221000
H      0.720000   -0.720000    2.476000
H      0.429000    1.010000    2.602000
H     -1.882000   -0.038000   -1.106000
H     -0.515000   -0.876000   -1.863000
H     -0.559000    0.879000   -1.850000
C     -0.393100    3.146200   -0.545300
C     -0.384200    3.113600    0.849100
C      0.642800    3.803600    1.463400
C      1.557600    4.456300    0.638500
Br    -1.753800    2.235400   -1.481000
N      0.499400    3.781700   -1.300000
N      1.492900    4.449000   -0.696300
H     -1.141600    2.576800    1.399900
H      0.738000    3.839200    2.539300
H      2.387500    5.016400    1.046400
