22

O      1.224000    0.000000    0.000000
C      0.000000    0.000000    0.000000
N     -0.718000    0.000000    1.154000
H     -1.717000    0.061000    1.108000
C     -0.809000   -0.010000   -1.276000
C     -0.049000    0.046000    2.436000
H     -0.777000   -0.133000    3.221000
H      0.720000   -0.720000    2.476000
H      0.429000    1.010000    2.602000
H     -1.882000   -0.038000   -1.106000
H     -0.515000   -0.876000   -1.863000
H     -0.559000    0.879000   -1.850000
C      3.644900    4.888500   -0.364800
C      4.819200    5.598000   -0.113300
C      4.685000    6.968200    0.000900
C      3.404400    7.499400   -0.144800
Br     3.719600    3.012100   -0.538000
N      2.437900    5.432100   -0.497900
N      2.316100    6.762300   -0.385700
H      5.767600    5.091700   -0.016500
H      5.534800    7.606900    0.195200
H      3.221100    8.562200   -0.068500
