22

O      1.224000    0.000000    0.000000
C      0.000000    0.000000    0.000000
N     -0.718000    0.000000    1.154000
H     -1.717000    0.061000    1.108000
C     -0.809000   -0.010000   -1.276000
C     -0.049000    0.046000    2.436000
H     -0.777000   -0.133000    3.221000
H      0.720000   -0.720000    2.476000
H      0.429000    1.010000    2.602000
H     -1.882000   -0.038000   -1.106000
H     -0.515000   -0.876000   -1.863000
H     -0.559000    0.879000   -1.850000
C      5.468000    0.513000   -1.515900
C      4.666500    0.984400   -2.555500
C      4.698700    2.348300   -2.772900
C      5.519300    3.109000   -1.941500
Br     5.495700   -1.334200   -1.136800
N      6.239700    1.271800   -0.742200
N      6.265400    2.594300   -0.959500
H      4.063300    0.310800   -3.145100
H      4.113500    2.811800   -3.554300
H      5.596400    4.181800   -2.051100
