22

O      1.224000    0.000000    0.000000
C      0.000000    0.000000    0.000000
N     -0.718000    0.000000    1.154000
H     -1.717000    0.061000    1.108000
C     -0.809000   -0.010000   -1.276000
C     -0.049000    0.046000    2.436000
H     -0.777000   -0.133000    3.221000
H      0.720000   -0.720000    2.476000
H      0.429000    1.010000    2.602000
H     -1.882000   -0.038000   -1.106000
H     -0.515000   -0.876000   -1.863000
H     -0.559000    0.879000   -1.850000
C      2.089000   -3.255200    4.623200
C      2.898400   -3.735900    5.652400
C      2.247600   -4.404400    6.671200
C      0.863000   -4.530700    6.570700
Br     2.879700   -2.327900    3.183900
N      0.767400   -3.395600    4.562000
N      0.143500   -4.045500    5.554400
H      3.967300   -3.586100    5.638500
H      2.785200   -4.814700    7.514100
H      0.285200   -5.040700    7.329000
