22

O      1.224000    0.000000    0.000000
C      0.000000    0.000000    0.000000
N     -0.718000    0.000000    1.154000
H     -1.717000    0.061000    1.108000
C     -0.809000   -0.010000   -1.276000
C     -0.049000    0.046000    2.436000
H     -0.777000   -0.133000    3.221000
H      0.720000   -0.720000    2.476000
H      0.429000    1.010000    2.602000
H     -1.882000   -0.038000   -1.106000
H     -0.515000   -0.876000   -1.863000
H     -0.559000    0.879000   -1.850000
C      1.064900    3.680900   -1.127600
C      0.741600    4.048900    0.178300
C      1.337900    5.203900    0.646100
C      2.193300    5.879000   -0.223400
Br     0.303800    2.119200   -1.861500
N      1.887700    4.352500   -1.928900
N      2.462200    5.472200   -1.467600
H      0.064600    3.455900    0.774300
H      1.152200    5.573600    1.644400
H      2.696000    6.789600    0.071600
