22

O      1.224000    0.000000    0.000000
C      0.000000    0.000000    0.000000
N     -0.718000    0.000000    1.154000
H     -1.717000    0.061000    1.108000
C     -0.809000   -0.010000   -1.276000
C     -0.049000    0.046000    2.436000
H     -0.777000   -0.133000    3.221000
H      0.720000   -0.720000    2.476000
H      0.429000    1.010000    2.602000
H     -1.882000   -0.038000   -1.106000
H     -0.515000   -0.876000   -1.863000
H     -0.559000    0.879000   -1.850000
C     -1.564400   -4.087100   -1.333300
C     -2.748700   -4.678800   -1.772400
C     -3.134900   -5.825600   -1.106000
C     -2.312400   -6.272300   -0.072900
Br    -0.949200   -2.516800   -2.177200
N     -0.804600   -4.544000   -0.341400
N     -1.186200   -5.657300    0.300300
H     -3.317300   -4.253600   -2.585500
H     -4.036900   -6.358600   -1.370600
H     -2.549200   -7.161900    0.494000
