22

O      1.224000    0.000000    0.000000
C      0.000000    0.000000    0.000000
N     -0.718000    0.000000    1.154000
H     -1.717000    0.061000    1.108000
C     -0.809000   -0.010000   -1.276000
C     -0.049000    0.046000    2.436000
H     -0.777000   -0.133000    3.221000
H      0.720000   -0.720000    2.476000
H      0.429000    1.010000    2.602000
H     -1.882000   -0.038000   -1.106000
H     -0.515000   -0.876000   -1.863000
H     -0.559000    0.879000   -1.850000
C      5.401400   -2.670600   -0.827200
C      6.530000   -2.253500   -0.121800
C      7.567500   -3.162700   -0.048700
C      7.385500   -4.392400   -0.679700
Br     3.928700   -1.503300   -0.985900
N      5.264200   -3.855100   -1.417400
N      6.275400   -4.731800   -1.341900
H      6.574100   -1.275800    0.333500
H      8.485000   -2.935200    0.475000
H      8.152500   -5.154200   -0.665500
