22

O      1.224000    0.000000    0.000000
C      0.000000    0.000000    0.000000
N     -0.718000    0.000000    1.154000
H     -1.717000    0.061000    1.108000
C     -0.809000   -0.010000   -1.276000
C     -0.049000    0.046000    2.436000
H     -0.777000   -0.133000    3.221000
H      0.720000   -0.720000    2.476000
H      0.429000    1.010000    2.602000
H     -1.882000   -0.038000   -1.106000
H     -0.515000   -0.876000   -1.863000
H     -0.559000    0.879000   -1.850000
C      3.936000   -2.818400   -1.078900
C      5.113700   -3.560800   -1.164400
C      4.959500   -4.916000   -1.383700
C      3.657500   -5.401300   -1.496200
Br     4.036900   -0.958900   -0.781100
N      2.708200   -3.318300   -1.191700
N      2.567100   -4.634200   -1.404300
H      6.079500   -3.089400   -1.063300
H      5.810100   -5.577500   -1.465400
H      3.457700   -6.449800   -1.668000
