22

O      1.224000    0.000000    0.000000
C      0.000000    0.000000    0.000000
N     -0.718000    0.000000    1.154000
H     -1.717000    0.061000    1.108000
C     -0.809000   -0.010000   -1.276000
C     -0.049000    0.046000    2.436000
H     -0.777000   -0.133000    3.221000
H      0.720000   -0.720000    2.476000
H      0.429000    1.010000    2.602000
H     -1.882000   -0.038000   -1.106000
H     -0.515000   -0.876000   -1.863000
H     -0.559000    0.879000   -1.850000
C     -1.408500    2.787600   -0.073200
C     -1.142700    3.558000   -1.205200
C     -1.770800    3.159000   -2.369100
C     -2.598200    2.039400   -2.297500
Br    -0.600100    3.248200    1.567200
N     -2.206000    1.723000   -0.044000
N     -2.811800    1.342400   -1.177500
H     -0.483500    4.411400   -1.157600
H     -1.630100    3.689700   -3.299900
H     -3.123100    1.667700   -3.166600
