22

O      1.224000    0.000000    0.000000
C      0.000000    0.000000    0.000000
N     -0.718000    0.000000    1.154000
H     -1.717000    0.061000    1.108000
C     -0.809000   -0.010000   -1.276000
C     -0.049000    0.046000    2.436000
H     -0.777000   -0.133000    3.221000
H      0.720000   -0.720000    2.476000
H      0.429000    1.010000    2.602000
H     -1.882000   -0.038000   -1.106000
H     -0.515000   -0.876000   -1.863000
H     -0.559000    0.879000   -1.850000
C      1.788100   -4.598100   -0.261500
C      2.564200   -5.130600    0.767800
C      2.632800   -6.509300    0.822000
C      1.927800   -7.223000   -0.146000
Br     1.629200   -2.725900   -0.423600
N      1.128300   -5.313300   -1.168800
N      1.199900   -6.650400   -1.109400
H      3.074100   -4.490100    1.471400
H      3.208000   -7.018900    1.581700
H      1.933800   -8.303900   -0.167700
