22

O      1.224000    0.000000    0.000000
C      0.000000    0.000000    0.000000
N     -0.718000    0.000000    1.154000
H     -1.717000    0.061000    1.108000
C     -0.809000   -0.010000   -1.276000
C     -0.049000    0.046000    2.436000
H     -0.777000   -0.133000    3.221000
H      0.720000   -0.720000    2.476000
H      0.429000    1.010000    2.602000
H     -1.882000   -0.038000   -1.106000
H     -0.515000   -0.876000   -1.863000
H     -0.559000    0.879000   -1.850000
C      2.405700   -4.250200   -0.411000
C      1.677700   -5.233700   -1.080500
C      2.029500   -6.540400   -0.803000
C      3.064900   -6.744000    0.107900
Br     2.003800   -2.433700   -0.719700
N      3.389600   -4.484000    0.453500
N      3.724900   -5.754700    0.717400
H      0.890000   -4.972500   -1.770800
H      1.525900   -7.374600   -1.270200
H      3.395800   -7.738100    0.375000
