22

O      1.224000    0.000000    0.000000
C      0.000000    0.000000    0.000000
N     -0.718000    0.000000    1.154000
H     -1.717000    0.061000    1.108000
C     -0.809000   -0.010000   -1.276000
C     -0.049000    0.046000    2.436000
H     -0.777000   -0.133000    3.221000
H      0.720000   -0.720000    2.476000
H      0.429000    1.010000    2.602000
H     -1.882000   -0.038000   -1.106000
H     -0.515000   -0.876000   -1.863000
H     -0.559000    0.879000   -1.850000
C      5.033000    2.210400   -3.046200
C      3.893400    3.010400   -3.128500
C      4.085900    4.360900   -2.910600
C      5.384700    4.785000   -2.633500
Br     4.878100    0.352000   -3.327400
N      6.259000    2.652700   -2.778800
N      6.437400    3.964400   -2.568700
H      2.926800    2.584200   -3.349900
H      3.266700    5.064400   -2.952200
H      5.613000    5.826100   -2.452100
