22

O      1.224000    0.000000    0.000000
C      0.000000    0.000000    0.000000
N     -0.718000    0.000000    1.154000
H     -1.717000    0.061000    1.108000
C     -0.809000   -0.010000   -1.276000
C     -0.049000    0.046000    2.436000
H     -0.777000   -0.133000    3.221000
H      0.720000   -0.720000    2.476000
H      0.429000    1.010000    2.602000
H     -1.882000   -0.038000   -1.106000
H     -0.515000   -0.876000   -1.863000
H     -0.559000    0.879000   -1.850000
C     -0.041900   -2.559900   -2.874200
C      0.698000   -3.664900   -3.294800
C      0.008400   -4.609900   -4.029600
C     -1.342400   -4.368100   -4.274900
Br     0.806200   -1.211700   -1.864300
N     -1.333000   -2.363600   -3.128400
N     -1.994900   -3.285100   -3.842100
H      1.745400   -3.760700   -3.052300
H      0.491600   -5.502100   -4.401600
H     -1.947100   -5.061800   -4.842300
