22

O      1.224000    0.000000    0.000000
C      0.000000    0.000000    0.000000
N     -0.718000    0.000000    1.154000
H     -1.717000    0.061000    1.108000
C     -0.809000   -0.010000   -1.276000
C     -0.049000    0.046000    2.436000
H     -0.777000   -0.133000    3.221000
H      0.720000   -0.720000    2.476000
H      0.429000    1.010000    2.602000
H     -1.882000   -0.038000   -1.106000
H     -0.515000   -0.876000   -1.863000
H     -0.559000    0.879000   -1.850000
C      2.796500    3.042400    0.222200
C      2.922200    4.302000    0.807900
C      3.311100    5.324700   -0.035300
C      3.536700    5.000200   -1.372200
Br     2.270500    1.577700    1.287400
N      3.021000    2.770900   -1.060700
N      3.398100    3.768700   -1.872400
H      2.723800    4.451600    1.858400
H      3.436900    6.337000    0.321500
H      3.843200    5.746900   -2.091400
