22

O      1.224000    0.000000    0.000000
C      0.000000    0.000000    0.000000
N     -0.718000    0.000000    1.154000
H     -1.717000    0.061000    1.108000
C     -0.809000   -0.010000   -1.276000
C     -0.049000    0.046000    2.436000
H     -0.777000   -0.133000    3.221000
H      0.720000   -0.720000    2.476000
H      0.429000    1.010000    2.602000
H     -1.882000   -0.038000   -1.106000
H     -0.515000   -0.876000   -1.863000
H     -0.559000    0.879000   -1.850000
C      4.009600   -4.847300    0.786300
C      4.476000   -5.147600    2.066100
C      5.024100   -6.405000    2.230100
C      5.056400   -7.239000    1.113500
Br     3.242800   -3.156100    0.456900
N      4.057700   -5.671500   -0.257000
N      4.591100   -6.889800   -0.089600
H      4.405300   -4.429600    2.868900
H      5.413600   -6.733900    3.183000
H      5.469900   -8.236600    1.164600
