22

O      1.224000    0.000000    0.000000
C      0.000000    0.000000    0.000000
N     -0.718000    0.000000    1.154000
H     -1.717000    0.061000    1.108000
C     -0.809000   -0.010000   -1.276000
C     -0.049000    0.046000    2.436000
H     -0.777000   -0.133000    3.221000
H      0.720000   -0.720000    2.476000
H      0.429000    1.010000    2.602000
H     -1.882000   -0.038000   -1.106000
H     -0.515000   -0.876000   -1.863000
H     -0.559000    0.879000   -1.850000
C      1.856900    3.046800   -1.591800
C      1.201800    3.860000   -0.667100
C     -0.178500    3.809000   -0.688300
C     -0.772600    2.959800   -1.620800
Br     3.742100    3.043000   -1.644800
N      1.254100    2.247700   -2.468100
N     -0.085600    2.203800   -2.482400
H      1.754900    4.485600    0.016900
H     -0.778300    4.401000   -0.011900
H     -1.847000    2.866700   -1.696800
