22

O      1.224000    0.000000    0.000000
C      0.000000    0.000000    0.000000
N     -0.718000    0.000000    1.154000
H     -1.717000    0.061000    1.108000
C     -0.809000   -0.010000   -1.276000
C     -0.049000    0.046000    2.436000
H     -0.777000   -0.133000    3.221000
H      0.720000   -0.720000    2.476000
H      0.429000    1.010000    2.602000
H     -1.882000   -0.038000   -1.106000
H     -0.515000   -0.876000   -1.863000
H     -0.559000    0.879000   -1.850000
C      1.205500   -3.853800   -0.609800
C      0.759700   -4.996000    0.055000
C      0.155800   -5.956900   -0.732600
C      0.053200   -5.692700   -2.097500
Br     2.044100   -2.481200    0.374800
N      1.089400   -3.636900   -1.917300
N      0.502300   -4.574100   -2.674700
H      0.886600   -5.106800    1.121200
H     -0.223300   -6.877800   -0.313000
H     -0.406700   -6.396900   -2.776800
