22

O      1.224000    0.000000    0.000000
C      0.000000    0.000000    0.000000
N     -0.718000    0.000000    1.154000
H     -1.717000    0.061000    1.108000
C     -0.809000   -0.010000   -1.276000
C     -0.049000    0.046000    2.436000
H     -0.777000   -0.133000    3.221000
H      0.720000   -0.720000    2.476000
H      0.429000    1.010000    2.602000
H     -1.882000   -0.038000   -1.106000
H     -0.515000   -0.876000   -1.863000
H     -0.559000    0.879000   -1.850000
C      1.400300   -2.541100   -3.381900
C      2.264300   -3.278000   -4.191700
C      2.152700   -4.652000   -4.101800
C      1.198900   -5.159600   -3.220900
Br     1.472300   -0.657200   -3.429900
N      0.500900   -3.062600   -2.551700
N      0.398800   -4.396600   -2.470100
H      2.971700   -2.788700   -4.843900
H      2.776900   -5.311100   -4.688100
H      1.053600   -6.223700   -3.096600
