22

O      1.224000    0.000000    0.000000
C      0.000000    0.000000    0.000000
N     -0.718000    0.000000    1.154000
H     -1.717000    0.061000    1.108000
C     -0.809000   -0.010000   -1.276000
C     -0.049000    0.046000    2.436000
H     -0.777000   -0.133000    3.221000
H      0.720000   -0.720000    2.476000
H      0.429000    1.010000    2.602000
H     -1.882000   -0.038000   -1.106000
H     -0.515000   -0.876000   -1.863000
H     -0.559000    0.879000   -1.850000
C      1.288700    3.862300   -0.462600
C      0.980300    3.428100    0.826500
C      0.569500    4.405900    1.711700
C      0.504800    5.714100    1.234300
Br     1.859700    2.605700   -1.747700
N      1.214600    5.122700   -0.882100
N      0.815100    6.065600   -0.017100
H      1.062900    2.387100    1.099800
H      0.307700    4.171800    2.733700
H      0.192200    6.532400    1.867900
