22

O      1.224000    0.000000    0.000000
C      0.000000    0.000000    0.000000
N     -0.718000    0.000000    1.154000
H     -1.717000    0.061000    1.108000
C     -0.809000   -0.010000   -1.276000
C     -0.049000    0.046000    2.436000
H     -0.777000   -0.133000    3.221000
H      0.720000   -0.720000    2.476000
H      0.429000    1.010000    2.602000
H     -1.882000   -0.038000   -1.106000
H     -0.515000   -0.876000   -1.863000
H     -0.559000    0.879000   -1.850000
C      5.426700    0.431600   -0.255100
C      5.070200    0.026900    1.031200
C      5.009600    1.025200    1.984100
C      5.307200    2.322800    1.570300
Br     5.538200   -0.854800   -1.629600
N      5.704200    1.682700   -0.612600
N      5.643100    2.645700    0.317800
H      4.857700   -1.008100    1.252100
H      4.742900    0.814500    3.009900
H      5.280900    3.155900    2.258900
