22

O      1.224000    0.000000    0.000000
C      0.000000    0.000000    0.000000
N     -0.718000    0.000000    1.154000
H     -1.717000    0.061000    1.108000
C     -0.809000   -0.010000   -1.276000
C     -0.049000    0.046000    2.436000
H     -0.777000   -0.133000    3.221000
H      0.720000   -0.720000    2.476000
H      0.429000    1.010000    2.602000
H     -1.882000   -0.038000   -1.106000
H     -0.515000   -0.876000   -1.863000
H     -0.559000    0.879000   -1.850000
C      4.476700   -4.466300   -2.657700
C      5.490200   -5.012500   -1.870500
C      6.102100   -6.144600   -2.372800
C      5.651200   -6.623000   -3.602000
Br     3.577500   -2.919400   -2.061700
N      4.073100   -4.952500   -3.828500
N      4.671900   -6.051200   -4.309100
H      5.767600   -4.565400   -0.928000
H      6.898400   -6.643100   -1.838700
H      6.081400   -7.503700   -4.058400
