22

O      1.224000    0.000000    0.000000
C      0.000000    0.000000    0.000000
N     -0.718000    0.000000    1.154000
H     -1.717000    0.061000    1.108000
C     -0.809000   -0.010000   -1.276000
C     -0.049000    0.046000    2.436000
H     -0.777000   -0.133000    3.221000
H      0.720000   -0.720000    2.476000
H      0.429000    1.010000    2.602000
H     -1.882000   -0.038000   -1.106000
H     -0.515000   -0.876000   -1.863000
H     -0.559000    0.879000   -1.850000
C      3.409000   -2.096000   -0.487500
C      3.235600   -0.781200   -0.919500
C      2.847300   -0.623600   -2.235800
C      2.669300   -1.780600   -2.992800
Br     3.938400   -2.420100    1.293300
N      3.229200   -3.177500   -1.241300
N      2.852400   -3.016100   -2.517500
H      3.399100    0.051800   -0.252700
H      2.686600    0.354500   -2.666300
H      2.366300   -1.736900   -4.029700
