22

O      1.224000    0.000000    0.000000
C      0.000000    0.000000    0.000000
N     -0.718000    0.000000    1.154000
H     -1.717000    0.061000    1.108000
C     -0.809000   -0.010000   -1.276000
C     -0.049000    0.046000    2.436000
H     -0.777000   -0.133000    3.221000
H      0.720000   -0.720000    2.476000
H      0.429000    1.010000    2.602000
H     -1.882000   -0.038000   -1.106000
H     -0.515000   -0.876000   -1.863000
H     -0.559000    0.879000   -1.850000
C      0.822300   -4.509800   -2.376300
C     -0.298200   -4.284800   -3.175900
C     -0.820000   -5.394700   -3.811600
C     -0.182400   -6.615000   -3.593500
Br     1.611500   -3.059900   -1.464400
N      1.404100   -5.692000   -2.192200
N      0.891800   -6.764100   -2.812500
H     -0.719900   -3.296700   -3.280900
H     -1.686900   -5.325500   -4.453000
H     -0.532900   -7.526900   -4.056600
