22

O      1.224000    0.000000    0.000000
C      0.000000    0.000000    0.000000
N     -0.718000    0.000000    1.154000
H     -1.717000    0.061000    1.108000
C     -0.809000   -0.010000   -1.276000
C     -0.049000    0.046000    2.436000
H     -0.777000   -0.133000    3.221000
H      0.720000   -0.720000    2.476000
H      0.429000    1.010000    2.602000
H     -1.882000   -0.038000   -1.106000
H     -0.515000   -0.876000   -1.863000
H     -0.559000    0.879000   -1.850000
C     -0.625300   -3.796500   -4.413300
C     -0.883900   -4.219200   -5.717100
C     -1.373600   -5.504100   -5.850100
C     -1.558600   -6.241800   -4.681800
Br     0.045900   -2.058200   -4.122800
N     -0.815000   -4.531200   -3.320400
N     -1.290500   -5.776900   -3.457900
H     -0.706500   -3.569200   -6.560400
H     -1.605600   -5.925100   -6.817900
H     -1.938200   -7.253900   -4.706300
