22

O      1.224000    0.000000    0.000000
C      0.000000    0.000000    0.000000
N     -0.718000    0.000000    1.154000
H     -1.717000    0.061000    1.108000
C     -0.809000   -0.010000   -1.276000
C     -0.049000    0.046000    2.436000
H     -0.777000   -0.133000    3.221000
H      0.720000   -0.720000    2.476000
H      0.429000    1.010000    2.602000
H     -1.882000   -0.038000   -1.106000
H     -0.515000   -0.876000   -1.863000
H     -0.559000    0.879000   -1.850000
C      4.970300    3.145200    0.380000
C      6.073200    3.807400    0.919000
C      6.028400    5.187600    0.879500
C      4.898600    5.774500    0.311600
Br     4.932900    1.259700    0.385000
N      3.907800    3.741400   -0.154600
N      3.871900    5.080900   -0.189100
H      6.903600    3.259600    1.337800
H      6.833500    5.792500    1.271400
H      4.792000    6.848300    0.245400
