22

O      1.224000    0.000000    0.000000
C      0.000000    0.000000    0.000000
N     -0.718000    0.000000    1.154000
H     -1.717000    0.061000    1.108000
C     -0.809000   -0.010000   -1.276000
C     -0.049000    0.046000    2.436000
H     -0.777000   -0.133000    3.221000
H      0.720000   -0.720000    2.476000
H      0.429000    1.010000    2.602000
H     -1.882000   -0.038000   -1.106000
H     -0.515000   -0.876000   -1.863000
H     -0.559000    0.879000   -1.850000
C      4.148000   -1.909100   -0.838800
C      3.748100   -2.030600    0.491900
C      3.327300   -3.286500    0.884400
C      3.344000   -4.295700   -0.077100
Br     4.740200   -0.235500   -1.475300
N      4.149900   -2.897800   -1.729000
N      3.740200   -4.113500   -1.340300
H      3.772000   -1.184400    1.161600
H      2.997600   -3.484000    1.894400
H      3.029200   -5.303600    0.155500
