22

O      1.224000    0.000000    0.000000
C      0.000000    0.000000    0.000000
N     -0.718000    0.000000    1.154000
H     -1.717000    0.061000    1.108000
C     -0.809000   -0.010000   -1.276000
C     -0.049000    0.046000    2.436000
H     -0.777000   -0.133000    3.221000
H      0.720000   -0.720000    2.476000
H      0.429000    1.010000    2.602000
H     -1.882000   -0.038000   -1.106000
H     -0.515000   -0.876000   -1.863000
H     -0.559000    0.879000   -1.850000
C      5.533200   -3.230500    1.211200
C      6.466300   -3.837600    0.370800
C      6.578700   -5.209800    0.483500
C      5.758000   -5.844100    1.414900
Br     5.302500   -1.360300    1.135700
N      4.766100   -3.870900    2.089600
N      4.881200   -5.202400    2.192800
H      7.057100   -3.255700   -0.320300
H      7.272900   -5.773600   -0.123200
H      5.789400   -6.915100    1.559600
