22

O      1.224000    0.000000    0.000000
C      0.000000    0.000000    0.000000
N     -0.718000    0.000000    1.154000
H     -1.717000    0.061000    1.108000
C     -0.809000   -0.010000   -1.276000
C     -0.049000    0.046000    2.436000
H     -0.777000   -0.133000    3.221000
H      0.720000   -0.720000    2.476000
H      0.429000    1.010000    2.602000
H     -1.882000   -0.038000   -1.106000
H     -0.515000   -0.876000   -1.863000
H     -0.559000    0.879000   -1.850000
C      2.509000    2.669000    3.801100
C      1.546000    3.661200    3.618100
C      1.965600    4.958800    3.838100
C      3.294100    5.145600    4.216700
Br     2.037900    0.863700    3.525900
N      3.770400    2.886600    4.163800
N      4.169700    4.148600    4.375400
H      0.537900    3.413100    3.322200
H      1.295400    5.798700    3.722800
H      3.694800    6.131700    4.406200
