22

O      1.224000    0.000000    0.000000
C      0.000000    0.000000    0.000000
N     -0.718000    0.000000    1.154000
H     -1.717000    0.061000    1.108000
C     -0.809000   -0.010000   -1.276000
C     -0.049000    0.046000    2.436000
H     -0.777000   -0.133000    3.221000
H      0.720000   -0.720000    2.476000
H      0.429000    1.010000    2.602000
H     -1.882000   -0.038000   -1.106000
H     -0.515000   -0.876000   -1.863000
H     -0.559000    0.879000   -1.850000
C      3.744400   -3.232000   -1.947900
C      4.337000   -3.194000   -0.685800
C      4.537700   -4.416800   -0.075100
C      4.132700   -5.553800   -0.772600
Br     3.426700   -1.616300   -2.867200
N      3.370600   -4.339700   -2.583000
N      3.568700   -5.522200   -1.983700
H      4.616100   -2.257200   -0.227900
H      4.989700   -4.494500    0.903400
H      4.257200   -6.545000   -0.359200
