22

O      1.224000    0.000000    0.000000
C      0.000000    0.000000    0.000000
N     -0.718000    0.000000    1.154000
H     -1.717000    0.061000    1.108000
C     -0.809000   -0.010000   -1.276000
C     -0.049000    0.046000    2.436000
H     -0.777000   -0.133000    3.221000
H      0.720000   -0.720000    2.476000
H      0.429000    1.010000    2.602000
H     -1.882000   -0.038000   -1.106000
H     -0.515000   -0.876000   -1.863000
H     -0.559000    0.879000   -1.850000
C      2.960600    2.891600   -4.306600
C      1.847400    2.103400   -4.598100
C      1.381600    2.171900   -5.896900
C      2.062300    3.012100   -6.776700
Br     3.675000    2.870100   -2.561400
N      3.584600    3.682900   -5.175200
N      3.126500    3.743800   -6.433400
H      1.389400    1.482800   -3.843000
H      0.524800    1.599600   -6.222900
H      1.756500    3.117700   -7.808300
