22

O      1.224000    0.000000    0.000000
C      0.000000    0.000000    0.000000
N     -0.718000    0.000000    1.154000
H     -1.717000    0.061000    1.108000
C     -0.809000   -0.010000   -1.276000
C     -0.049000    0.046000    2.436000
H     -0.777000   -0.133000    3.221000
H      0.720000   -0.720000    2.476000
H      0.429000    1.010000    2.602000
H     -1.882000   -0.038000   -1.106000
H     -0.515000   -0.876000   -1.863000
H     -0.559000    0.879000   -1.850000
C      1.438200    4.346500    1.474200
C      1.266000    4.982700    0.244900
C      1.132100    6.356900    0.288900
C      1.181800    6.964200    1.542800
Br     1.630600    2.471100    1.523700
N      1.480500    4.961600    2.653100
N      1.349900    6.295200    2.687400
H      1.241100    4.420400   -0.676200
H      0.994300    6.942200   -0.608900
H      1.084500    8.034900    1.656700
