22

O      1.224000    0.000000    0.000000
C      0.000000    0.000000    0.000000
N     -0.718000    0.000000    1.154000
H     -1.717000    0.061000    1.108000
C     -0.809000   -0.010000   -1.276000
C     -0.049000    0.046000    2.436000
H     -0.777000   -0.133000    3.221000
H      0.720000   -0.720000    2.476000
H      0.429000    1.010000    2.602000
H     -1.882000   -0.038000   -1.106000
H     -0.515000   -0.876000   -1.863000
H     -0.559000    0.879000   -1.850000
C      1.516600   -1.848900   -3.225800
C      0.154900   -1.989600   -2.958400
C     -0.226500   -3.182100   -2.374700
C      0.775500   -4.115500   -2.113900
Br     2.141100   -0.257600   -4.022200
N      2.445200   -2.764400   -2.961900
N      2.067000   -3.918900   -2.395500
H     -0.545500   -1.204300   -3.199300
H     -1.258300   -3.388200   -2.128100
H      0.553800   -5.070900   -1.658900
