22

O      1.224000    0.000000    0.000000
C      0.000000    0.000000    0.000000
N     -0.718000    0.000000    1.154000
H     -1.717000    0.061000    1.108000
C     -0.809000   -0.010000   -1.276000
C     -0.049000    0.046000    2.436000
H     -0.777000   -0.133000    3.221000
H      0.720000   -0.720000    2.476000
H      0.429000    1.010000    2.602000
H     -1.882000   -0.038000   -1.106000
H     -0.515000   -0.876000   -1.863000
H     -0.559000    0.879000   -1.850000
C      5.181900    1.992700    3.358700
C      6.198100    1.244900    3.953200
C      7.276300    1.963500    4.432400
C      7.241800    3.348300    4.276200
Br     3.665200    1.106800    2.672000
N      5.184700    3.316600    3.227600
N      6.234400    4.006600    3.695200
H      6.130800    0.170000    4.026400
H      8.114800    1.477000    4.909900
H      8.048900    3.977000    4.625800
