22

O      1.224000    0.000000    0.000000
C      0.000000    0.000000    0.000000
N     -0.718000    0.000000    1.154000
H     -1.717000    0.061000    1.108000
C     -0.809000   -0.010000   -1.276000
C     -0.049000    0.046000    2.436000
H     -0.777000   -0.133000    3.221000
H      0.720000   -0.720000    2.476000
H      0.429000    1.010000    2.602000
H     -1.882000   -0.038000   -1.106000
H     -0.515000   -0.876000   -1.863000
H     -0.559000    0.879000   -1.850000
C      4.075800    1.805400   -2.774500
C      5.176000    1.251700   -2.119900
C      6.126800    0.661100   -2.929600
C      5.895100    0.677000   -4.304100
Br     2.720300    2.636000   -1.759900
N      3.889100    1.801100   -4.091800
N      4.816300    1.226100   -4.870500
H      5.263900    1.290800   -1.044800
H      7.015900    0.203900   -2.519400
H      6.593900    0.234700   -5.000500
