22

O      1.224000    0.000000    0.000000
C      0.000000    0.000000    0.000000
N     -0.718000    0.000000    1.154000
H     -1.717000    0.061000    1.108000
C     -0.809000   -0.010000   -1.276000
C     -0.049000    0.046000    2.436000
H     -0.777000   -0.133000    3.221000
H      0.720000   -0.720000    2.476000
H      0.429000    1.010000    2.602000
H     -1.882000   -0.038000   -1.106000
H     -0.515000   -0.876000   -1.863000
H     -0.559000    0.879000   -1.850000
C      4.577900    2.304600    0.744200
C      5.631600    1.438700    0.452000
C      6.820900    1.690800    1.108100
C      6.849500    2.772800    1.986600
Br     2.910700    2.046700   -0.098800
N      4.643500    3.329000    1.590600
N      5.801000    3.567000    2.223200
H      5.508600    0.625400   -0.247000
H      7.696500    1.077400    0.950400
H      7.744000    3.031900    2.535700
