22

O      1.224000    0.000000    0.000000
C      0.000000    0.000000    0.000000
N     -0.718000    0.000000    1.154000
H     -1.717000    0.061000    1.108000
C     -0.809000   -0.010000   -1.276000
C     -0.049000    0.046000    2.436000
H     -0.777000   -0.133000    3.221000
H      0.720000   -0.720000    2.476000
H      0.429000    1.010000    2.602000
H     -1.882000   -0.038000   -1.106000
H     -0.515000   -0.876000   -1.863000
H     -0.559000    0.879000   -1.850000
C      4.411000    1.163600    2.352200
C      3.951000    2.331400    1.743800
C      4.413700    2.568900    0.464000
C      5.284100    1.629000   -0.085900
Br     3.838700    0.746600    4.100100
N      5.243400    0.288600    1.794100
N      5.687900    0.526300    0.552000
H      3.274600    2.998700    2.255900
H      4.116300    3.446000   -0.092800
H      5.687500    1.746600   -1.082000
