22

O      1.224000    0.000000    0.000000
C      0.000000    0.000000    0.000000
N     -0.718000    0.000000    1.154000
H     -1.717000    0.061000    1.108000
C     -0.809000   -0.010000   -1.276000
C     -0.049000    0.046000    2.436000
H     -0.777000   -0.133000    3.221000
H      0.720000   -0.720000    2.476000
H      0.429000    1.010000    2.602000
H     -1.882000   -0.038000   -1.106000
H     -0.515000   -0.876000   -1.863000
H     -0.559000    0.879000   -1.850000
C      4.380300   -3.413000    0.678300
C      4.180900   -3.626500    2.042100
C      3.833100   -4.912400    2.408200
C      3.717400   -5.857700    1.390200
Br     4.858300   -1.691700    0.073900
N      4.260300   -4.342700   -0.265800
N      3.922600   -5.587900    0.097500
H      4.295400   -2.824500    2.755500
H      3.656800   -5.180000    3.440200
H      3.448900   -6.883900    1.599300
