22

O      1.224000    0.000000    0.000000
C      0.000000    0.000000    0.000000
N     -0.718000    0.000000    1.154000
H     -1.717000    0.061000    1.108000
C     -0.809000   -0.010000   -1.276000
C     -0.049000    0.046000    2.436000
H     -0.777000   -0.133000    3.221000
H      0.720000   -0.720000    2.476000
H      0.429000    1.010000    2.602000
H     -1.882000   -0.038000   -1.106000
H     -0.515000   -0.876000   -1.863000
H     -0.559000    0.879000   -1.850000
C      4.790400    1.297000   -2.384300
C      6.133300    1.583900   -2.628600
C      6.626400    2.726100   -2.028200
C      5.743300    3.469800   -1.246900
Br     4.019700   -0.240600   -3.157900
N      3.977100    2.032600   -1.631000
N      4.463200    3.139400   -1.051800
H      6.737100    0.941700   -3.251800
H      7.654100    3.035200   -2.155500
H      6.056500    4.375200   -0.745700
