22

O      1.224000    0.000000    0.000000
C      0.000000    0.000000    0.000000
N     -0.718000    0.000000    1.154000
H     -1.717000    0.061000    1.108000
C     -0.809000   -0.010000   -1.276000
C     -0.049000    0.046000    2.436000
H     -0.777000   -0.133000    3.221000
H      0.720000   -0.720000    2.476000
H      0.429000    1.010000    2.602000
H     -1.882000   -0.038000   -1.106000
H     -0.515000   -0.876000   -1.863000
H     -0.559000    0.879000   -1.850000
C      3.128500   -3.874800   -0.865400
C      2.575000   -4.516600    0.242400
C      2.677000   -5.894200    0.256300
C      3.315500   -6.498900   -0.825400
Br     3.042000   -1.994400   -0.981000
N      3.731500   -4.487600   -1.880700
N      3.826400   -5.824400   -1.859700
H      2.099100   -3.956000    1.032500
H      2.279800   -6.484000    1.070000
H      3.433300   -7.572000   -0.884700
