22

O      1.224000    0.000000    0.000000
C      0.000000    0.000000    0.000000
N     -0.718000    0.000000    1.154000
H     -1.717000    0.061000    1.108000
C     -0.809000   -0.010000   -1.276000
C     -0.049000    0.046000    2.436000
H     -0.777000   -0.133000    3.221000
H      0.720000   -0.720000    2.476000
H      0.429000    1.010000    2.602000
H     -1.882000   -0.038000   -1.106000
H     -0.515000   -0.876000   -1.863000
H     -0.559000    0.879000   -1.850000
C      4.970300   -0.801900    1.339400
C      5.646900    0.100200    0.518500
C      6.901000    0.486900    0.949900
C      7.360300   -0.056500    2.148800
Br     3.250400   -1.393000    0.840200
N      5.442500   -1.299500    2.479300
N      6.660100   -0.919400    2.891100
H      5.203200    0.464500   -0.395600
H      7.505600    1.181900    0.385000
H      8.331300    0.198700    2.549900
