22

O      1.224000    0.000000    0.000000
C      0.000000    0.000000    0.000000
N     -0.718000    0.000000    1.154000
H     -1.717000    0.061000    1.108000
C     -0.809000   -0.010000   -1.276000
C     -0.049000    0.046000    2.436000
H     -0.777000   -0.133000    3.221000
H      0.720000   -0.720000    2.476000
H      0.429000    1.010000    2.602000
H     -1.882000   -0.038000   -1.106000
H     -0.515000   -0.876000   -1.863000
H     -0.559000    0.879000   -1.850000
C      5.792900   -3.274200   -0.852500
C      5.946100   -4.189100    0.189100
C      6.152200   -5.502700   -0.185500
C      6.186100   -5.780200   -1.551200
Br     5.506600   -1.454600   -0.447900
N      5.831400   -3.577600   -2.147300
N      6.031800   -4.854500   -2.502500
H      5.903600   -3.873300    1.220500
H      6.282300   -6.287200    0.546300
H      6.342900   -6.784200   -1.920400
