22

O      1.224000    0.000000    0.000000
C      0.000000    0.000000    0.000000
N     -0.718000    0.000000    1.154000
H     -1.717000    0.061000    1.108000
C     -0.809000   -0.010000   -1.276000
C     -0.049000    0.046000    2.436000
H     -0.777000   -0.133000    3.221000
H      0.720000   -0.720000    2.476000
H      0.429000    1.010000    2.602000
H     -1.882000   -0.038000   -1.106000
H     -0.515000   -0.876000   -1.863000
H     -0.559000    0.879000   -1.850000
C      6.133800    2.276800    1.432900
C      7.474400    2.660600    1.466500
C      7.733600    3.904600    2.008400
C      6.642500    4.644100    2.462400
Br     5.673000    0.595900    0.712500
N      5.117600    3.011800    1.877000
N      5.377500    4.217700    2.401300
H      8.250300    2.012800    1.087800
H      8.739300    4.293600    2.079800
H      6.766700    5.625600    2.898400
