22

O      1.224000    0.000000    0.000000
C      0.000000    0.000000    0.000000
N     -0.718000    0.000000    1.154000
H     -1.717000    0.061000    1.108000
C     -0.809000   -0.010000   -1.276000
C     -0.049000    0.046000    2.436000
H     -0.777000   -0.133000    3.221000
H      0.720000   -0.720000    2.476000
H      0.429000    1.010000    2.602000
H     -1.882000   -0.038000   -1.106000
H     -0.515000   -0.876000   -1.863000
H     -0.559000    0.879000   -1.850000
C      1.803000    3.367800    2.377000
C      2.261200    4.032100    3.514600
C      1.843600    5.340900    3.659700
C      1.015500    5.861600    2.666500
Br     2.315800    1.576600    2.085000
N      1.011700    3.899400    1.448900
N      0.610800    5.169900    1.597000
H      2.903000    3.538900    4.228800
H      2.143700    5.941200    4.506700
H      0.648600    6.877600    2.711400
