22

O      1.224000    0.000000    0.000000
C      0.000000    0.000000    0.000000
N     -0.718000    0.000000    1.154000
H     -1.717000    0.061000    1.108000
C     -0.809000   -0.010000   -1.276000
C     -0.049000    0.046000    2.436000
H     -0.777000   -0.133000    3.221000
H      0.720000   -0.720000    2.476000
H      0.429000    1.010000    2.602000
H     -1.882000   -0.038000   -1.106000
H     -0.515000   -0.876000   -1.863000
H     -0.559000    0.879000   -1.850000
C      5.323000    0.751000    2.502800
C      5.520200   -0.556000    2.057400
C      6.013400   -1.445300    2.992500
C      6.262100   -0.953900    4.273100
Br     4.652600    2.043200    1.303800
N      5.572600    1.183500    3.735900
N      6.051000    0.314400    4.637300
H      5.295900   -0.839100    1.040200
H      6.200600   -2.480800    2.746500
H      6.648300   -1.589700    5.057600
