22

O      1.224000    0.000000    0.000000
C      0.000000    0.000000    0.000000
N     -0.718000    0.000000    1.154000
H     -1.717000    0.061000    1.108000
C     -0.809000   -0.010000   -1.276000
C     -0.049000    0.046000    2.436000
H     -0.777000   -0.133000    3.221000
H      0.720000   -0.720000    2.476000
H      0.429000    1.010000    2.602000
H     -1.882000   -0.038000   -1.106000
H     -0.515000   -0.876000   -1.863000
H     -0.559000    0.879000   -1.850000
C      2.384500    1.327800   -4.063700
C      2.503400    1.786900   -5.375300
C      2.543200    3.158600   -5.534500
C      2.461600    3.938500   -4.381900
Br     2.321300   -0.528700   -3.737900
N      2.309200    2.104900   -2.986400
N      2.348500    3.434800   -3.149200
H      2.559600    1.098600   -6.204900
H      2.633900    3.613800   -6.510400
H      2.486300    5.018400   -4.427000
