22

O      1.224000    0.000000    0.000000
C      0.000000    0.000000    0.000000
N     -0.718000    0.000000    1.154000
H     -1.717000    0.061000    1.108000
C     -0.809000   -0.010000   -1.276000
C     -0.049000    0.046000    2.436000
H     -0.777000   -0.133000    3.221000
H      0.720000   -0.720000    2.476000
H      0.429000    1.010000    2.602000
H     -1.882000   -0.038000   -1.106000
H     -0.515000   -0.876000   -1.863000
H     -0.559000    0.879000   -1.850000
C      4.865000   -2.381800    3.532500
C      5.856300   -2.607000    4.487500
C      5.514000   -3.450200    5.526900
C      4.227000   -3.986000    5.518100
Br     5.231200   -1.245500    2.072600
N      3.645200   -2.912400    3.558100
N      3.320800   -3.729600    4.569900
H      6.827200   -2.142700    4.404800
H      6.211600   -3.688200    6.317100
H      3.887100   -4.653500    6.297700
