22

O      1.224000    0.000000    0.000000
C      0.000000    0.000000    0.000000
N     -0.718000    0.000000    1.154000
H     -1.717000    0.061000    1.108000
C     -0.809000   -0.010000   -1.276000
C     -0.049000    0.046000    2.436000
H     -0.777000   -0.133000    3.221000
H      0.720000   -0.720000    2.476000
H      0.429000    1.010000    2.602000
H     -1.882000   -0.038000   -1.106000
H     -0.515000   -0.876000   -1.863000
H     -0.559000    0.879000   -1.850000
C      4.590000   -0.730200   -3.289600
C      5.895700   -0.240000   -3.298800
C      6.843400   -1.055100   -3.886800
C      6.405800   -2.272400   -4.406600
Br     3.220600    0.306100   -2.510200
N      4.209800   -1.899900   -3.796900
N      5.135400   -2.685100   -4.365800
H      6.134600    0.720600   -2.868000
H      7.883000   -0.765900   -3.944300
H      7.088900   -2.962800   -4.881500
