22

O      1.224000    0.000000    0.000000
C      0.000000    0.000000    0.000000
N     -0.718000    0.000000    1.154000
H     -1.717000    0.061000    1.108000
C     -0.809000   -0.010000   -1.276000
C     -0.049000    0.046000    2.436000
H     -0.777000   -0.133000    3.221000
H      0.720000   -0.720000    2.476000
H      0.429000    1.010000    2.602000
H     -1.882000   -0.038000   -1.106000
H     -0.515000   -0.876000   -1.863000
H     -0.559000    0.879000   -1.850000
C      1.532500    3.694900   -0.259200
C      0.858100    4.622000   -1.053500
C      0.877400    5.928900   -0.606100
C      1.561000    6.188200    0.580800
Br     1.566100    1.883200   -0.781900
N      2.175100    3.981000    0.870100
N      2.189200    5.251400    1.297500
H      0.356300    4.320200   -1.960300
H      0.384300    6.721800   -1.150100
H      1.619600    7.185900    0.993300
