22

O      1.224000    0.000000    0.000000
C      0.000000    0.000000    0.000000
N     -0.718000    0.000000    1.154000
H     -1.717000    0.061000    1.108000
C     -0.809000   -0.010000   -1.276000
C     -0.049000    0.046000    2.436000
H     -0.777000   -0.133000    3.221000
H      0.720000   -0.720000    2.476000
H      0.429000    1.010000    2.602000
H     -1.882000   -0.038000   -1.106000
H     -0.515000   -0.876000   -1.863000
H     -0.559000    0.879000   -1.850000
C      1.643100   -4.798300    3.240900
C      2.700000   -5.626500    3.618400
C      2.687700   -6.063000    4.929000
C      1.632600   -5.637300    5.734600
Br     1.566600   -4.147800    1.472400
N      0.651800   -4.412800    4.040200
N      0.647100   -4.840600    5.310500
H      3.472900   -5.900400    2.916400
H      3.461900   -6.708100    5.319100
H      1.555300   -5.937500    6.770400
