22

O      1.224000    0.000000    0.000000
C      0.000000    0.000000    0.000000
N     -0.718000    0.000000    1.154000
H     -1.717000    0.061000    1.108000
C     -0.809000   -0.010000   -1.276000
C     -0.049000    0.046000    2.436000
H     -0.777000   -0.133000    3.221000
H      0.720000   -0.720000    2.476000
H      0.429000    1.010000    2.602000
H     -1.882000   -0.038000   -1.106000
H     -0.515000   -0.876000   -1.863000
H     -0.559000    0.879000   -1.850000
C      2.658700   -2.261700   -4.573500
C      1.302600   -1.951800   -4.471900
C      0.720300   -1.409000   -5.600900
C      1.536200   -1.227000   -6.716500
Br     3.548800   -3.007600   -3.087600
N      3.406000   -2.073100   -5.658000
N      2.833500   -1.546000   -6.749400
H      0.755700   -2.131500   -3.558800
H     -0.324700   -1.134800   -5.623800
H      1.151700   -0.807800   -7.635900
