22

O      1.224000    0.000000    0.000000
C      0.000000    0.000000    0.000000
N     -0.718000    0.000000    1.154000
H     -1.717000    0.061000    1.108000
C     -0.809000   -0.010000   -1.276000
C     -0.049000    0.046000    2.436000
H     -0.777000   -0.133000    3.221000
H      0.720000   -0.720000    2.476000
H      0.429000    1.010000    2.602000
H     -1.882000   -0.038000   -1.106000
H     -0.515000   -0.876000   -1.863000
H     -0.559000    0.879000   -1.850000
C      2.738900    1.735300    2.717800
C      2.977200    1.433800    4.058600
C      3.676400    0.267200    4.300900
C      4.069600   -0.484000    3.194300
Br     1.792300    3.306400    2.279400
N      3.131000    0.991800    1.686500
N      3.808800   -0.138600    1.929900
H      2.629500    2.083500    4.847400
H      3.911500   -0.054700    5.305300
H      4.619700   -1.408100    3.304800
