22

O      1.224000    0.000000    0.000000
C      0.000000    0.000000    0.000000
N     -0.718000    0.000000    1.154000
H     -1.717000    0.061000    1.108000
C     -0.809000   -0.010000   -1.276000
C     -0.049000    0.046000    2.436000
H     -0.777000   -0.133000    3.221000
H      0.720000   -0.720000    2.476000
H      0.429000    1.010000    2.602000
H     -1.882000   -0.038000   -1.106000
H     -0.515000   -0.876000   -1.863000
H     -0.559000    0.879000   -1.850000
C      4.304500   -4.404500    1.381900
C      5.253200   -5.285400    1.901100
C      5.434900   -6.460900    1.198700
C      4.661200   -6.647900    0.054200
Br     3.980600   -2.770700    2.266400
N      3.583800   -4.618400    0.284200
N      3.766100   -5.761500   -0.391700
H      5.803600   -5.047600    2.798700
H      6.146500   -7.208500    1.518900
H      4.747700   -7.542400   -0.546900
