22

O      1.224000    0.000000    0.000000
C      0.000000    0.000000    0.000000
N     -0.718000    0.000000    1.154000
H     -1.717000    0.061000    1.108000
C     -0.809000   -0.010000   -1.276000
C     -0.049000    0.046000    2.436000
H     -0.777000   -0.133000    3.221000
H      0.720000   -0.720000    2.476000
H      0.429000    1.010000    2.602000
H     -1.882000   -0.038000   -1.106000
H     -0.515000   -0.876000   -1.863000
H     -0.559000    0.879000   -1.850000
C      4.465100    3.988900   -0.227000
C      3.903600    5.174600   -0.700500
C      4.197800    5.502000   -2.010000
C      5.016900    4.625300   -2.719600
Br     4.124900    3.451300    1.548400
N      5.244000    3.176100   -0.936100
N      5.524700    3.500900   -2.205900
H      3.279100    5.787900   -0.068900
H      3.811300    6.400000   -2.470400
H      5.290600    4.814500   -3.748300
