22

O      1.224000    0.000000    0.000000
C      0.000000    0.000000    0.000000
N     -0.718000    0.000000    1.154000
H     -1.717000    0.061000    1.108000
C     -0.809000   -0.010000   -1.276000
C     -0.049000    0.046000    2.436000
H     -0.777000   -0.133000    3.221000
H      0.720000   -0.720000    2.476000
H      0.429000    1.010000    2.602000
H     -1.882000   -0.038000   -1.106000
H     -0.515000   -0.876000   -1.863000
H     -0.559000    0.879000   -1.850000
C      2.571600   -2.892100    4.631600
C      2.767800   -4.135000    4.029800
C      2.308000   -5.228700    4.737600
C      1.700900   -4.984400    5.968400
Br     3.163100   -1.335000    3.747200
N      1.986400   -2.698300    5.810600
N      1.543000   -3.764600    6.491100
H      3.251400   -4.219900    3.068500
H      2.412200   -6.234800    4.357300
H      1.316600   -5.789500    6.579100
