22

O      1.224000    0.000000    0.000000
C      0.000000    0.000000    0.000000
N     -0.718000    0.000000    1.154000
H     -1.717000    0.061000    1.108000
C     -0.809000   -0.010000   -1.276000
C     -0.049000    0.046000    2.436000
H     -0.777000   -0.133000    3.221000
H      0.720000   -0.720000    2.476000
H      0.429000    1.010000    2.602000
H     -1.882000   -0.038000   -1.106000
H     -0.515000   -0.876000   -1.863000
H     -0.559000    0.879000   -1.850000
C      4.380800    0.414100   -2.473600
C      3.493300    1.213100   -3.194100
C      3.353900    0.905600   -4.533700
C      4.105200   -0.160300   -5.026400
Br     4.643300    0.751200   -0.636700
N      5.081900   -0.597000   -2.980000
N      4.941000   -0.889100   -4.280500
H      2.955600    2.019300   -2.718700
H      2.690800    1.465100   -5.177900
H      4.049000   -0.460000   -6.063700
