22

O      1.224000    0.000000    0.000000
C      0.000000    0.000000    0.000000
N     -0.718000    0.000000    1.154000
H     -1.717000    0.061000    1.108000
C     -0.809000   -0.010000   -1.276000
C     -0.049000    0.046000    2.436000
H     -0.777000   -0.133000    3.221000
H      0.720000   -0.720000    2.476000
H      0.429000    1.010000    2.602000
H     -1.882000   -0.038000   -1.106000
H     -0.515000   -0.876000   -1.863000
H     -0.559000    0.879000   -1.850000
C      0.877200    2.877900   -2.513200
C      0.124200    3.619100   -3.423800
C      0.091300    4.983800   -3.211700
C      0.805600    5.478700   -2.121700
Br     0.986700    1.005900   -2.714100
N      1.546900    3.387200   -1.482600
N      1.510000    4.712200   -1.283700
H     -0.395600    3.139800   -4.239500
H     -0.463900    5.645300   -3.861300
H      0.827000    6.535000   -1.892200
