22

O      1.224000    0.000000    0.000000
C      0.000000    0.000000    0.000000
N     -0.718000    0.000000    1.154000
H     -1.717000    0.061000    1.108000
C     -0.809000   -0.010000   -1.276000
C     -0.049000    0.046000    2.436000
H     -0.777000   -0.133000    3.221000
H      0.720000   -0.720000    2.476000
H      0.429000    1.010000    2.602000
H     -1.882000   -0.038000   -1.106000
H     -0.515000   -0.876000   -1.863000
H     -0.559000    0.879000   -1.850000
C      0.963200   -3.691900    1.453100
C      0.021000   -4.697100    1.670500
C      0.130000   -5.812700    0.863100
C      1.158600   -5.822900   -0.077700
Br     0.901600   -2.126600    2.503200
N      1.932800   -3.737800    0.543300
N      2.031800   -4.823800   -0.236300
H     -0.740900   -4.593900    2.428200
H     -0.551800   -6.646400    0.952800
H      1.306800   -6.661000   -0.744500
