22

O      1.224000    0.000000    0.000000
C      0.000000    0.000000    0.000000
N     -0.718000    0.000000    1.154000
H     -1.717000    0.061000    1.108000
C     -0.809000   -0.010000   -1.276000
C     -0.049000    0.046000    2.436000
H     -0.777000   -0.133000    3.221000
H      0.720000   -0.720000    2.476000
H      0.429000    1.010000    2.602000
H     -1.882000   -0.038000   -1.106000
H     -0.515000   -0.876000   -1.863000
H     -0.559000    0.879000   -1.850000
C      3.930200   -1.198400    4.146400
C      4.535800   -1.907800    3.109300
C      5.796400   -2.407000    3.373800
C      6.331800   -2.155100    4.636100
Br     2.207900   -0.475200    3.887100
N      4.474100   -0.978100    5.340400
N      5.697600   -1.465800    5.589300
H      4.035900   -2.049200    2.163100
H      6.349500   -2.970400    2.636000
H      7.312600   -2.513600    4.916100
