22

O      1.224000    0.000000    0.000000
C      0.000000    0.000000    0.000000
N     -0.718000    0.000000    1.154000
H     -1.717000    0.061000    1.108000
C     -0.809000   -0.010000   -1.276000
C     -0.049000    0.046000    2.436000
H     -0.777000   -0.133000    3.221000
H      0.720000   -0.720000    2.476000
H      0.429000    1.010000    2.602000
H     -1.882000   -0.038000   -1.106000
H     -0.515000   -0.876000   -1.863000
H     -0.559000    0.879000   -1.850000
C     -1.667500    4.811900   -1.606900
C     -2.747000    5.259800   -2.368200
C     -2.909500    6.629800   -2.439400
C     -1.989200    7.419300   -1.751400
Br    -1.357700    2.958600   -1.445800
N     -0.808600    5.598000   -0.963100
N     -0.973100    6.926200   -1.037200
H     -3.406300    4.564600   -2.865400
H     -3.715300    7.076600   -3.004000
H     -2.051800    8.498600   -1.760500
