22

O      1.224000    0.000000    0.000000
C      0.000000    0.000000    0.000000
N     -0.718000    0.000000    1.154000
H     -1.717000    0.061000    1.108000
C     -0.809000   -0.010000   -1.276000
C     -0.049000    0.046000    2.436000
H     -0.777000   -0.133000    3.221000
H      0.720000   -0.720000    2.476000
H      0.429000    1.010000    2.602000
H     -1.882000   -0.038000   -1.106000
H     -0.515000   -0.876000   -1.863000
H     -0.559000    0.879000   -1.850000
C      4.031900    2.548500   -1.317800
C      4.148300    2.933100   -2.653400
C      4.731400    4.164900   -2.879200
C      5.140900    4.892600   -1.762900
Br     3.249600    0.883700   -0.901700
N      4.435500    3.272000   -0.276800
N      5.000300    4.466100   -0.504200
H      3.798600    2.295000   -3.450800
H      4.867100    4.553500   -3.878400
H      5.605000    5.864200   -1.860300
