22

O      1.224000    0.000000    0.000000
C      0.000000    0.000000    0.000000
N     -0.718000    0.000000    1.154000
H     -1.717000    0.061000    1.108000
C     -0.809000   -0.010000   -1.276000
C     -0.049000    0.046000    2.436000
H     -0.777000   -0.133000    3.221000
H      0.720000   -0.720000    2.476000
H      0.429000    1.010000    2.602000
H     -1.882000   -0.038000   -1.106000
H     -0.515000   -0.876000   -1.863000
H     -0.559000    0.879000   -1.850000
C     -1.172700    4.194200   -1.011700
C     -2.402600    4.801100   -0.757600
C     -2.580000    6.058400   -1.301700
C     -1.524800    6.589500   -2.041900
Br    -0.829800    2.476100   -0.313600
N     -0.187500    4.733900   -1.724500
N     -0.367500    5.954200   -2.249100
H     -3.159300    4.304600   -0.169400
H     -3.497500    6.612200   -1.162300
H     -1.590000    7.567500   -2.498000
