22

O      1.224000    0.000000    0.000000
C      0.000000    0.000000    0.000000
N     -0.718000    0.000000    1.154000
H     -1.717000    0.061000    1.108000
C     -0.809000   -0.010000   -1.276000
C     -0.049000    0.046000    2.436000
H     -0.777000   -0.133000    3.221000
H      0.720000   -0.720000    2.476000
H      0.429000    1.010000    2.602000
H     -1.882000   -0.038000   -1.106000
H     -0.515000   -0.876000   -1.863000
H     -0.559000    0.879000   -1.850000
C      3.296600    2.263300    1.097600
C      4.214600    3.288000    1.327000
C      4.937900    3.200100    2.500700
C      4.681400    2.108800    3.329500
Br     2.258400    2.289800   -0.476600
N      3.079300    1.235600    1.914100
N      3.785100    1.157500    3.051000
H      4.340200    4.093900    0.620000
H      5.673700    3.944100    2.770400
H      5.207800    1.972400    4.263900
