22

O      1.224000    0.000000    0.000000
C      0.000000    0.000000    0.000000
N     -0.718000    0.000000    1.154000
H     -1.717000    0.061000    1.108000
C     -0.809000   -0.010000   -1.276000
C     -0.049000    0.046000    2.436000
H     -0.777000   -0.133000    3.221000
H      0.720000   -0.720000    2.476000
H      0.429000    1.010000    2.602000
H     -1.882000   -0.038000   -1.106000
H     -0.515000   -0.876000   -1.863000
H     -0.559000    0.879000   -1.850000
C      6.103900    2.951000    0.145500
C      5.641100    3.207100   -1.145100
C      6.590900    3.165900   -2.147300
C      7.902300    2.875900   -1.773600
Br     4.886800    2.983100    1.585700
N      7.366400    2.677300    0.463700
N      8.282100    2.639200   -0.514400
H      4.600100    3.422800   -1.332400
H      6.333400    3.350100   -3.180500
H      8.699900    2.826200   -2.501800
