22

O      1.224000    0.000000    0.000000
C      0.000000    0.000000    0.000000
N     -0.718000    0.000000    1.154000
H     -1.717000    0.061000    1.108000
C     -0.809000   -0.010000   -1.276000
C     -0.049000    0.046000    2.436000
H     -0.777000   -0.133000    3.221000
H      0.720000   -0.720000    2.476000
H      0.429000    1.010000    2.602000
H     -1.882000   -0.038000   -1.106000
H     -0.515000   -0.876000   -1.863000
H     -0.559000    0.879000   -1.850000
C      1.692300    3.985500   -2.857600
C      1.164200    4.943300   -3.723200
C      0.094400    5.671100   -3.239300
C     -0.346000    5.379400   -1.949200
Br     3.155200    2.937800   -3.422300
N      1.243900    3.735300   -1.630200
N      0.205400    4.445800   -1.168100
H      1.578300    5.094200   -4.708600
H     -0.385300    6.436500   -3.832500
H     -1.177500    5.906900   -1.502800
