22

O      1.224000    0.000000    0.000000
C      0.000000    0.000000    0.000000
N     -0.718000    0.000000    1.154000
H     -1.717000    0.061000    1.108000
C     -0.809000   -0.010000   -1.276000
C     -0.049000    0.046000    2.436000
H     -0.777000   -0.133000    3.221000
H      0.720000   -0.720000    2.476000
H      0.429000    1.010000    2.602000
H     -1.882000   -0.038000   -1.106000
H     -0.515000   -0.876000   -1.863000
H     -0.559000    0.879000   -1.850000
C     -0.029900   -3.727400   -2.632200
C      0.999100   -3.313800   -1.786300
C      1.651500   -4.315300   -1.093600
C      1.221700   -5.624200   -1.306200
Br    -0.984100   -2.437700   -3.623600
N     -0.412300   -4.989300   -2.809300
N      0.225700   -5.955200   -2.133500
H      1.257500   -2.270200   -1.690200
H      2.462700   -4.098400   -0.413300
H      1.683700   -6.460400   -0.799900
