22

O      1.224000    0.000000    0.000000
C      0.000000    0.000000    0.000000
N     -0.718000    0.000000    1.154000
H     -1.717000    0.061000    1.108000
C     -0.809000   -0.010000   -1.276000
C     -0.049000    0.046000    2.436000
H     -0.777000   -0.133000    3.221000
H      0.720000   -0.720000    2.476000
H      0.429000    1.010000    2.602000
H     -1.882000   -0.038000   -1.106000
H     -0.515000   -0.876000   -1.863000
H     -0.559000    0.879000   -1.850000
C      5.196100    4.114600    0.728700
C      5.981000    3.148700    1.358500
C      7.288600    3.509000    1.620300
C      7.689200    4.787100    1.233700
Br     3.395800    3.722200    0.326800
N      5.614900    5.326600    0.374200
N      6.885100    5.668500    0.631700
H      5.575600    2.182700    1.618900
H      7.977200    2.831700    2.104900
H      8.696600    5.140000    1.405300
