22

O      1.224000    0.000000    0.000000
C      0.000000    0.000000    0.000000
N     -0.718000    0.000000    1.154000
H     -1.717000    0.061000    1.108000
C     -0.809000   -0.010000   -1.276000
C     -0.049000    0.046000    2.436000
H     -0.777000   -0.133000    3.221000
H      0.720000   -0.720000    2.476000
H      0.429000    1.010000    2.602000
H     -1.882000   -0.038000   -1.106000
H     -0.515000   -0.876000   -1.863000
H     -0.559000    0.879000   -1.850000
C      2.731300   -3.933700   -1.840100
C      1.803600   -4.844100   -1.334000
C      1.874300   -6.125900   -1.844200
C      2.854100   -6.379300   -2.802900
Br     2.719100   -2.156600   -1.209000
N      3.653800   -4.213400   -2.757100
N      3.715800   -5.459500   -3.247100
H      1.080700   -4.548700   -0.588800
H      1.199900   -6.904400   -1.517000
H      2.970400   -7.357800   -3.247700
