22

O      1.224000    0.000000    0.000000
C      0.000000    0.000000    0.000000
N     -0.718000    0.000000    1.154000
H     -1.717000    0.061000    1.108000
C     -0.809000   -0.010000   -1.276000
C     -0.049000    0.046000    2.436000
H     -0.777000   -0.133000    3.221000
H      0.720000   -0.720000    2.476000
H      0.429000    1.010000    2.602000
H     -1.882000   -0.038000   -1.106000
H     -0.515000   -0.876000   -1.863000
H     -0.559000    0.879000   -1.850000
C      3.069800   -1.288900    2.626900
C      3.152400   -0.845000    3.946500
C      2.085900   -1.171000    4.761900
C      1.045400   -1.902700    4.191500
Br     4.474600   -0.896200    1.431500
N      2.057900   -1.986700    2.117800
N      1.026900   -2.299100    2.915400
H      4.005200   -0.281700    4.293900
H      2.054400   -0.873500    5.800300
H      0.177800   -2.194600    4.766700
