22

O      1.224000    0.000000    0.000000
C      0.000000    0.000000    0.000000
N     -0.718000    0.000000    1.154000
H     -1.717000    0.061000    1.108000
C     -0.809000   -0.010000   -1.276000
C     -0.049000    0.046000    2.436000
H     -0.777000   -0.133000    3.221000
H      0.720000   -0.720000    2.476000
H      0.429000    1.010000    2.602000
H     -1.882000   -0.038000   -1.106000
H     -0.515000   -0.876000   -1.863000
H     -0.559000    0.879000   -1.850000
C      3.523800    2.030600   -3.425200
C      2.224600    2.531500   -3.345000
C      2.089500    3.768600   -2.745100
C      3.251500    4.386200   -2.285000
Br     3.816600    0.348700   -4.226400
N      4.610700    2.651000   -2.973500
N      4.471300    3.851000   -2.392700
H      1.386000    1.973500   -3.733100
H      1.124800    4.242900   -2.634500
H      3.225100    5.354700   -1.805100
