22

O      1.224000    0.000000    0.000000
C      0.000000    0.000000    0.000000
N     -0.718000    0.000000    1.154000
H     -1.717000    0.061000    1.108000
C     -0.809000   -0.010000   -1.276000
C     -0.049000    0.046000    2.436000
H     -0.777000   -0.133000    3.221000
H      0.720000   -0.720000    2.476000
H      0.429000    1.010000    2.602000
H     -1.882000   -0.038000   -1.106000
H     -0.515000   -0.876000   -1.863000
H     -0.559000    0.879000   -1.850000
C      2.551800   -1.738400   -3.888300
C      3.882200   -2.157100   -3.894000
C      4.086200   -3.522200   -3.949800
C      2.955400   -4.336200   -3.994300
Br     2.165000    0.105900   -3.813900
N      1.496400   -2.547400   -3.931800
N      1.702700   -3.870700   -3.985800
H      4.692000   -1.444300   -3.856700
H      5.079700   -3.947200   -3.958900
H      3.035500   -5.413500   -4.039000
