22

O      1.224000    0.000000    0.000000
C      0.000000    0.000000    0.000000
N     -0.718000    0.000000    1.154000
H     -1.717000    0.061000    1.108000
C     -0.809000   -0.010000   -1.276000
C     -0.049000    0.046000    2.436000
H     -0.777000   -0.133000    3.221000
H      0.720000   -0.720000    2.476000
H      0.429000    1.010000    2.602000
H     -1.882000   -0.038000   -1.106000
H     -0.515000   -0.876000   -1.863000
H     -0.559000    0.879000   -1.850000
C      5.105100    0.135700   -0.703800
C      6.029200    0.783900   -1.523100
C      6.729200   -0.021800   -2.400100
C      6.445900   -1.386600   -2.379400
Br     4.097100    1.145700    0.529300
N      4.861800   -1.172300   -0.712800
N      5.545300   -1.947200   -1.566700
H      6.176300    1.851600   -1.463100
H      7.467500    0.384100   -3.076900
H      6.953100   -2.079500   -3.036300
