22

O      1.224000    0.000000    0.000000
C      0.000000    0.000000    0.000000
N     -0.718000    0.000000    1.154000
H     -1.717000    0.061000    1.108000
C     -0.809000   -0.010000   -1.276000
C     -0.049000    0.046000    2.436000
H     -0.777000   -0.133000    3.221000
H      0.720000   -0.720000    2.476000
H      0.429000    1.010000    2.602000
H     -1.882000   -0.038000   -1.106000
H     -0.515000   -0.876000   -1.863000
H     -0.559000    0.879000   -1.850000
C      3.938600   -2.001500    3.344200
C      3.787300   -2.966900    2.349000
C      3.032800   -4.072900    2.689300
C      2.503900   -4.113900    3.978400
Br     4.950800   -0.452300    2.980900
N      3.417200   -2.076000    4.566000
N      2.686400   -3.152400    4.888500
H      4.239000   -2.842000    1.376600
H      2.856700   -4.876600    1.988600
H      1.903400   -4.946800    4.317100
