22

O      1.224000    0.000000    0.000000
C      0.000000    0.000000    0.000000
N     -0.718000    0.000000    1.154000
H     -1.717000    0.061000    1.108000
C     -0.809000   -0.010000   -1.276000
C     -0.049000    0.046000    2.436000
H     -0.777000   -0.133000    3.221000
H      0.720000   -0.720000    2.476000
H      0.429000    1.010000    2.602000
H     -1.882000   -0.038000   -1.106000
H     -0.515000   -0.876000   -1.863000
H     -0.559000    0.879000   -1.850000
C      0.438300    4.945100   -2.679500
C      1.746400    5.339100   -2.960700
C      2.040300    5.552400   -4.293600
C      1.012400    5.355000   -5.214300
Br    -0.065500    4.628100   -0.890000
N     -0.517400    4.766700   -3.587600
N     -0.224300    4.975700   -4.878800
H      2.473200    5.465200   -2.172600
H      3.025100    5.859900   -4.614900
H      1.166600    5.502400   -6.274200
