22

O      1.224000    0.000000    0.000000
C      0.000000    0.000000    0.000000
N     -0.718000    0.000000    1.154000
H     -1.717000    0.061000    1.108000
C     -0.809000   -0.010000   -1.276000
C     -0.049000    0.046000    2.436000
H     -0.777000   -0.133000    3.221000
H      0.720000   -0.720000    2.476000
H      0.429000    1.010000    2.602000
H     -1.882000   -0.038000   -1.106000
H     -0.515000   -0.876000   -1.863000
H     -0.559000    0.879000   -1.850000
C      5.120000   -3.251100    2.415700
C      4.274600   -3.855800    1.485500
C      4.435000   -5.217700    1.318600
C      5.414300   -5.845000    2.087200
Br     4.981700   -1.394800    2.718300
N      6.044900   -3.884600    3.132100
N      6.194300   -5.206100    2.964300
H      3.544400   -3.280000    0.937500
H      3.828800   -5.778900    0.621900
H      5.597900   -6.907800    2.011500
