22

O      1.224000    0.000000    0.000000
C      0.000000    0.000000    0.000000
N     -0.718000    0.000000    1.154000
H     -1.717000    0.061000    1.108000
C     -0.809000   -0.010000   -1.276000
C     -0.049000    0.046000    2.436000
H     -0.777000   -0.133000    3.221000
H      0.720000   -0.720000    2.476000
H      0.429000    1.010000    2.602000
H     -1.882000   -0.038000   -1.106000
H     -0.515000   -0.876000   -1.863000
H     -0.559000    0.879000   -1.850000
C      1.207200    2.910000   -0.519100
C      2.351800    3.135100    0.245500
C      3.457500    3.595900   -0.442700
C      3.321100    3.787900   -1.816700
Br    -0.357200    2.280100    0.325000
N      1.115100    3.105300   -1.831900
N      2.192300    3.552500   -2.492400
H      2.356800    2.955100    1.309800
H      4.392600    3.800900    0.058700
H      4.142200    4.146200   -2.421900
