22

O      1.224000    0.000000    0.000000
C      0.000000    0.000000    0.000000
N     -0.718000    0.000000    1.154000
H     -1.717000    0.061000    1.108000
C     -0.809000   -0.010000   -1.276000
C     -0.049000    0.046000    2.436000
H     -0.777000   -0.133000    3.221000
H      0.720000   -0.720000    2.476000
H      0.429000    1.010000    2.602000
H     -1.882000   -0.038000   -1.106000
H     -0.515000   -0.876000   -1.863000
H     -0.559000    0.879000   -1.850000
C      1.643200   -3.677800   -2.225400
C      0.401200   -3.464300   -2.823200
C      0.409600   -3.310200   -4.196100
C      1.643900   -3.382500   -4.839900
Br     1.741100   -3.900600   -0.355300
N      2.802700   -3.740700   -2.874900
N      2.802300   -3.590200   -4.206800
H     -0.502500   -3.424700   -2.234300
H     -0.500700   -3.140300   -4.753100
H      1.729800   -3.271500   -5.911900
