22

O      1.224000    0.000000    0.000000
C      0.000000    0.000000    0.000000
N     -0.718000    0.000000    1.154000
H     -1.717000    0.061000    1.108000
C     -0.809000   -0.010000   -1.276000
C     -0.049000    0.046000    2.436000
H     -0.777000   -0.133000    3.221000
H      0.720000   -0.720000    2.476000
H      0.429000    1.010000    2.602000
H     -1.882000   -0.038000   -1.106000
H     -0.515000   -0.876000   -1.863000
H     -0.559000    0.879000   -1.850000
C      1.256200    4.459000    3.621700
C      0.541200    4.717700    4.791000
C      0.481900    6.041100    5.183000
C      1.134900    6.975400    4.380500
Br     1.397500    2.684100    3.000100
N      1.867500    5.379600    2.880900
N      1.805300    6.661400    3.268000
H      0.068600    3.920600    5.344500
H     -0.047700    6.345100    6.074600
H      1.132500    8.029000    4.623000
