22

O      1.224000    0.000000    0.000000
C      0.000000    0.000000    0.000000
N     -0.718000    0.000000    1.154000
H     -1.717000    0.061000    1.108000
C     -0.809000   -0.010000   -1.276000
C     -0.049000    0.046000    2.436000
H     -0.777000   -0.133000    3.221000
H      0.720000   -0.720000    2.476000
H      0.429000    1.010000    2.602000
H     -1.882000   -0.038000   -1.106000
H     -0.515000   -0.876000   -1.863000
H     -0.559000    0.879000   -1.850000
C      4.962900    1.364600    2.189400
C      4.048700    1.379300    3.242700
C      4.407600    0.657700    4.364700
C      5.633300   -0.005500    4.333300
Br     4.568000    2.318700    0.611300
N      6.125800    0.718200    2.196400
N      6.466700    0.020400    3.288900
H      3.121100    1.926400    3.169400
H      3.767900    0.606200    5.234200
H      5.981800   -0.589900    5.173500
