22

O      1.224000    0.000000    0.000000
C      0.000000    0.000000    0.000000
N     -0.718000    0.000000    1.154000
H     -1.717000    0.061000    1.108000
C     -0.809000   -0.010000   -1.276000
C     -0.049000    0.046000    2.436000
H     -0.777000   -0.133000    3.221000
H      0.720000   -0.720000    2.476000
H      0.429000    1.010000    2.602000
H     -1.882000   -0.038000   -1.106000
H     -0.515000   -0.876000   -1.863000
H     -0.559000    0.879000   -1.850000
C      3.988300    2.129800   -4.402300
C      5.001700    2.634200   -3.587500
C      5.415800    3.922600   -3.865300
C      4.787100    4.582700   -4.919900
Br     3.351100    0.379700   -4.105900
N      3.411300    2.791700   -5.401800
N      3.818700    4.041300   -5.665000
H      5.426200    2.040700   -2.792000
H      6.195000    4.403800   -3.291600
H      5.057400    5.592300   -5.196500
