22

O      1.224000    0.000000    0.000000
C      0.000000    0.000000    0.000000
N     -0.718000    0.000000    1.154000
H     -1.717000    0.061000    1.108000
C     -0.809000   -0.010000   -1.276000
C     -0.049000    0.046000    2.436000
H     -0.777000   -0.133000    3.221000
H      0.720000   -0.720000    2.476000
H      0.429000    1.010000    2.602000
H     -1.882000   -0.038000   -1.106000
H     -0.515000   -0.876000   -1.863000
H     -0.559000    0.879000   -1.850000
C      5.022200   -3.832900    0.882300
C      6.224400   -3.134700    0.995000
C      7.073000   -3.550800    2.002500
C      6.648600   -4.614600    2.797200
Br     3.793100   -3.343300   -0.461600
N      4.651300   -4.845600    1.661500
N      5.480300   -5.243300    2.636800
H      6.462100   -2.320700    0.327100
H      8.028100   -3.074600    2.172200
H      7.258200   -4.995600    3.604800
