22

O      1.224000    0.000000    0.000000
C      0.000000    0.000000    0.000000
N     -0.718000    0.000000    1.154000
H     -1.717000    0.061000    1.108000
C     -0.809000   -0.010000   -1.276000
C     -0.049000    0.046000    2.436000
H     -0.777000   -0.133000    3.221000
H      0.720000   -0.720000    2.476000
H      0.429000    1.010000    2.602000
H     -1.882000   -0.038000   -1.106000
H     -0.515000   -0.876000   -1.863000
H     -0.559000    0.879000   -1.850000
C      3.391300    4.349900   -0.223200
C      3.523900    4.949600    1.029100
C      3.861300    6.289200    1.025200
C      4.033800    6.901400   -0.215200
Br     2.932900    2.523600   -0.328000
N      3.564300    4.968500   -1.388300
N      3.891600    6.268400   -1.383600
H      3.368700    4.386700    1.937000
H      3.987700    6.844700    1.943500
H      4.298200    7.946400   -0.298200
