22

O      1.224000    0.000000    0.000000
C      0.000000    0.000000    0.000000
N     -0.718000    0.000000    1.154000
H     -1.717000    0.061000    1.108000
C     -0.809000   -0.010000   -1.276000
C     -0.049000    0.046000    2.436000
H     -0.777000   -0.133000    3.221000
H      0.720000   -0.720000    2.476000
H      0.429000    1.010000    2.602000
H     -1.882000   -0.038000   -1.106000
H     -0.515000   -0.876000   -1.863000
H     -0.559000    0.879000   -1.850000
C      4.764800   -1.115900    1.863700
C      5.787200   -0.262600    2.278400
C      6.355400   -0.551000    3.504100
C      5.856500   -1.653200    4.196600
Br     3.922700   -0.808900    0.204400
N      4.314800   -2.160500    2.553900
N      4.871400   -2.433700    3.742300
H      6.103400    0.568600    1.666600
H      7.154400    0.050100    3.914200
H      6.250900   -1.940800    5.161300
