22

O      1.224000    0.000000    0.000000
C      0.000000    0.000000    0.000000
N     -0.718000    0.000000    1.154000
H     -1.717000    0.061000    1.108000
C     -0.809000   -0.010000   -1.276000
C     -0.049000    0.046000    2.436000
H     -0.777000   -0.133000    3.221000
H      0.720000   -0.720000    2.476000
H      0.429000    1.010000    2.602000
H     -1.882000   -0.038000   -1.106000
H     -0.515000   -0.876000   -1.863000
H     -0.559000    0.879000   -1.850000
C      3.383700    1.610300   -0.191900
C      2.893200    1.849300    1.091800
C      3.105200    0.845300    2.016600
C      3.780400   -0.293600    1.580300
Br     3.145900    2.918700   -1.529100
N      4.024700    0.508000   -0.571500
N      4.226500   -0.461500    0.331800
H      2.381000    2.768700    1.331600
H      2.763700    0.934000    3.038100
H      3.983200   -1.120700    2.246400
