22

O      1.224000    0.000000    0.000000
C      0.000000    0.000000    0.000000
N     -0.718000    0.000000    1.154000
H     -1.717000    0.061000    1.108000
C     -0.809000   -0.010000   -1.276000
C     -0.049000    0.046000    2.436000
H     -0.777000   -0.133000    3.221000
H      0.720000   -0.720000    2.476000
H      0.429000    1.010000    2.602000
H     -1.882000   -0.038000   -1.106000
H     -0.515000   -0.876000   -1.863000
H     -0.559000    0.879000   -1.850000
C      2.271500    0.084300    4.555400
C      2.269900    1.355100    3.980600
C      3.051900    2.304200    4.609900
C      3.756600    1.902400    5.743600
Br     1.236300   -1.284000    3.772600
N      2.958800   -0.262200    5.640600
N      3.715200    0.664600    6.245400
H      1.687200    1.567600    3.097100
H      3.118200    3.318400    4.242500
H      4.389000    2.589000    6.289100
