22

O      1.224000    0.000000    0.000000
C      0.000000    0.000000    0.000000
N     -0.718000    0.000000    1.154000
H     -1.717000    0.061000    1.108000
C     -0.809000   -0.010000   -1.276000
C     -0.049000    0.046000    2.436000
H     -0.777000   -0.133000    3.221000
H      0.720000   -0.720000    2.476000
H      0.429000    1.010000    2.602000
H     -1.882000   -0.038000   -1.106000
H     -0.515000   -0.876000   -1.863000
H     -0.559000    0.879000   -1.850000
C      0.291800   -4.641100   -2.508100
C     -0.527900   -5.221400   -3.475900
C     -0.531000   -6.602200   -3.516500
C      0.275900   -7.270600   -2.597000
Br     0.367900   -2.761800   -2.369400
N      1.049500   -5.313800   -1.645800
N      1.040900   -6.653400   -1.691700
H     -1.118000   -4.613800   -4.145100
H     -1.132600   -7.147100   -4.229900
H      0.325600   -8.350300   -2.568100
