22

O      1.224000    0.000000    0.000000
C      0.000000    0.000000    0.000000
N     -0.718000    0.000000    1.154000
H     -1.717000    0.061000    1.108000
C     -0.809000   -0.010000   -1.276000
C     -0.049000    0.046000    2.436000
H     -0.777000   -0.133000    3.221000
H      0.720000   -0.720000    2.476000
H      0.429000    1.010000    2.602000
H     -1.882000   -0.038000   -1.106000
H     -0.515000   -0.876000   -1.863000
H     -0.559000    0.879000   -1.850000
C      3.166300    4.344200   -3.059500
C      2.026600    4.957600   -2.539700
C      2.022100    6.338900   -2.557300
C      3.144000    6.975100   -3.086500
Br     3.272200    2.461400   -3.081800
N      4.219800    4.986700   -3.557000
N      4.207700    6.327000   -3.570500
H      1.206200    4.373600   -2.151100
H      1.185700    6.908100   -2.177600
H      3.213000    8.053000   -3.133800
