22

O      1.224000    0.000000    0.000000
C      0.000000    0.000000    0.000000
N     -0.718000    0.000000    1.154000
H     -1.717000    0.061000    1.108000
C     -0.809000   -0.010000   -1.276000
C     -0.049000    0.046000    2.436000
H     -0.777000   -0.133000    3.221000
H      0.720000   -0.720000    2.476000
H      0.429000    1.010000    2.602000
H     -1.882000   -0.038000   -1.106000
H     -0.515000   -0.876000   -1.863000
H     -0.559000    0.879000   -1.850000
C      4.643400   -0.436100    3.005300
C      5.898100   -0.330700    2.405400
C      6.586500    0.842700    2.645700
C      5.966100    1.793600    3.454400
Br     3.621900   -1.999000    2.739800
N      4.083200    0.495200    3.772700
N      4.757500    1.630900    4.001100
H      6.293000   -1.127200    1.793100
H      7.566300    1.021300    2.226300
H      6.442800    2.735800    3.687000
