22

O      1.224000    0.000000    0.000000
C      0.000000    0.000000    0.000000
N     -0.718000    0.000000    1.154000
H     -1.717000    0.061000    1.108000
C     -0.809000   -0.010000   -1.276000
C     -0.049000    0.046000    2.436000
H     -0.777000   -0.133000    3.221000
H      0.720000   -0.720000    2.476000
H      0.429000    1.010000    2.602000
H     -1.882000   -0.038000   -1.106000
H     -0.515000   -0.876000   -1.863000
H     -0.559000    0.879000   -1.850000
C      4.878500   -3.413700   -1.740300
C      5.098300   -4.691300   -1.225600
C      6.079600   -5.434900   -1.852200
C      6.744800   -4.841500   -2.923900
Br     3.560000   -2.317000   -0.955800
N      5.535300   -2.880600   -2.767200
N      6.485900   -3.608600   -3.369800
H      4.527400   -5.061500   -0.387700
H      6.325500   -6.436200   -1.528800
H      7.524300   -5.361400   -3.463400
