22

O      1.224000    0.000000    0.000000
C      0.000000    0.000000    0.000000
N     -0.718000    0.000000    1.154000
H     -1.717000    0.061000    1.108000
C     -0.809000   -0.010000   -1.276000
C     -0.049000    0.046000    2.436000
H     -0.777000   -0.133000    3.221000
H      0.720000   -0.720000    2.476000
H      0.429000    1.010000    2.602000
H     -1.882000   -0.038000   -1.106000
H     -0.515000   -0.876000   -1.863000
H     -0.559000    0.879000   -1.850000
C      3.052100    4.942600   -0.222100
C      3.290500    5.789000   -1.304800
C      3.390200    7.134900   -1.009600
C      3.244400    7.509000    0.325400
Br     2.899200    3.086400   -0.518100
N      2.918400    5.337800    1.041200
N      3.016400    6.645400    1.319500
H      3.388700    5.399800   -2.306800
H      3.573700    7.871900   -1.778200
H      3.309800    8.543300    0.633200
