22

O      1.224000    0.000000    0.000000
C      0.000000    0.000000    0.000000
N     -0.718000    0.000000    1.154000
H     -1.717000    0.061000    1.108000
C     -0.809000   -0.010000   -1.276000
C     -0.049000    0.046000    2.436000
H     -0.777000   -0.133000    3.221000
H      0.720000   -0.720000    2.476000
H      0.429000    1.010000    2.602000
H     -1.882000   -0.038000   -1.106000
H     -0.515000   -0.876000   -1.863000
H     -0.559000    0.879000   -1.850000
C      4.228200   -1.748500    1.052600
C      5.615900   -1.671000    1.169400
C      6.102400   -1.408800    2.435500
C      5.169000   -1.249600    3.458600
Br     3.462300   -2.102500   -0.634000
N      3.367500   -1.590500    2.054800
N      3.847400   -1.336300    3.280200
H      6.257000   -1.810000    0.312100
H      7.162300   -1.329300    2.630400
H      5.474000   -1.042500    4.475000
