22

O      1.224000    0.000000    0.000000
C      0.000000    0.000000    0.000000
N     -0.718000    0.000000    1.154000
H     -1.717000    0.061000    1.108000
C     -0.809000   -0.010000   -1.276000
C     -0.049000    0.046000    2.436000
H     -0.777000   -0.133000    3.221000
H      0.720000   -0.720000    2.476000
H      0.429000    1.010000    2.602000
H     -1.882000   -0.038000   -1.106000
H     -0.515000   -0.876000   -1.863000
H     -0.559000    0.879000   -1.850000
C      4.171000    1.395400    1.492300
C      2.966500    1.826300    0.936400
C      2.961700    2.001700   -0.433900
C      4.147100    1.734000   -1.116800
Br     4.283000    1.125300    3.355400
N      5.284100    1.149700    0.806300
N      5.271200    1.322400   -0.522900
H      2.099600    2.007100    1.553600
H      2.077700    2.332900   -0.960000
H      4.220000    1.848400   -2.189500
