22

O      1.224000    0.000000    0.000000
C      0.000000    0.000000    0.000000
N     -0.718000    0.000000    1.154000
H     -1.717000    0.061000    1.108000
C     -0.809000   -0.010000   -1.276000
C     -0.049000    0.046000    2.436000
H     -0.777000   -0.133000    3.221000
H      0.720000   -0.720000    2.476000
H      0.429000    1.010000    2.602000
H     -1.882000   -0.038000   -1.106000
H     -0.515000   -0.876000   -1.863000
H     -0.559000    0.879000   -1.850000
C      1.805300   -4.874600   -2.250900
C      0.497400   -4.956800   -1.773500
C     -0.328400   -5.853000   -2.424100
C      0.221000   -6.577600   -3.480700
Br     3.013500   -3.680800   -1.431300
N      2.294400   -5.584300   -3.264400
N      1.486800   -6.451700   -3.890500
H      0.166300   -4.349800   -0.944600
H     -1.359200   -5.990700   -2.130100
H     -0.363400   -7.297100   -4.037300
