22

O      1.224000    0.000000    0.000000
C      0.000000    0.000000    0.000000
N     -0.718000    0.000000    1.154000
H     -1.717000    0.061000    1.108000
C     -0.809000   -0.010000   -1.276000
C     -0.049000    0.046000    2.436000
H     -0.777000   -0.133000    3.221000
H      0.720000   -0.720000    2.476000
H      0.429000    1.010000    2.602000
H     -1.882000   -0.038000   -1.106000
H     -0.515000   -0.876000   -1.863000
H     -0.559000    0.879000   -1.850000
C      2.054200    2.705700   -3.464000
C      1.795800    4.063400   -3.651400
C      2.233400    4.603000   -4.845400
C      2.882200    3.747000   -5.734100
Br     1.497500    1.872100   -1.866600
N      2.677800    1.919300   -4.337500
N      3.099300    2.450500   -5.493800
H      1.283600    4.643400   -2.898700
H      2.081600    5.645600   -5.085900
H      3.252500    4.096800   -6.687700
