22

O      1.224000    0.000000    0.000000
C      0.000000    0.000000    0.000000
N     -0.718000    0.000000    1.154000
H     -1.717000    0.061000    1.108000
C     -0.809000   -0.010000   -1.276000
C     -0.049000    0.046000    2.436000
H     -0.777000   -0.133000    3.221000
H      0.720000   -0.720000    2.476000
H      0.429000    1.010000    2.602000
H     -1.882000   -0.038000   -1.106000
H     -0.515000   -0.876000   -1.863000
H     -0.559000    0.879000   -1.850000
C      1.647800   -2.629900    2.906200
C      2.245900   -3.716500    3.544300
C      1.722100   -4.958500    3.241800
C      0.660300   -5.002000    2.339600
Br     2.288800   -0.890100    3.250700
N      0.633500   -2.711300    2.049000
N      0.131000   -3.920000    1.760800
H      3.067600   -3.578000    4.230400
H      2.115600   -5.862700    3.683800
H      0.198600   -5.937100    2.054300
