22

O      1.224000    0.000000    0.000000
C      0.000000    0.000000    0.000000
N     -0.718000    0.000000    1.154000
H     -1.717000    0.061000    1.108000
C     -0.809000   -0.010000   -1.276000
C     -0.049000    0.046000    2.436000
H     -0.777000   -0.133000    3.221000
H      0.720000   -0.720000    2.476000
H      0.429000    1.010000    2.602000
H     -1.882000   -0.038000   -1.106000
H     -0.515000   -0.876000   -1.863000
H     -0.559000    0.879000   -1.850000
C      4.548900   -1.996800   -3.325800
C      5.093300   -3.074800   -2.627800
C      5.995900   -3.853300   -3.326100
C      6.269800   -3.488600   -4.643400
Br     3.306100   -0.871400   -2.462400
N      4.835600   -1.679700   -4.585700
N      5.712300   -2.440100   -5.256400
H      4.815500   -3.274800   -1.604100
H      6.473100   -4.711200   -2.874400
H      6.965000   -4.049500   -5.252600
