22

O      1.224000    0.000000    0.000000
C      0.000000    0.000000    0.000000
N     -0.718000    0.000000    1.154000
H     -1.717000    0.061000    1.108000
C     -0.809000   -0.010000   -1.276000
C     -0.049000    0.046000    2.436000
H     -0.777000   -0.133000    3.221000
H      0.720000   -0.720000    2.476000
H      0.429000    1.010000    2.602000
H     -1.882000   -0.038000   -1.106000
H     -0.515000   -0.876000   -1.863000
H     -0.559000    0.879000   -1.850000
C      4.212400    2.107800    0.891600
C      5.328600    2.882800    1.206000
C      5.920900    2.622600    2.426600
C      5.351000    1.622900    3.213600
Br     3.330200    2.384400   -0.752100
N      3.696500    1.160500    1.670400
N      4.277000    0.914000    2.853200
H      5.694700    3.636500    0.525500
H      6.790800    3.168600    2.762600
H      5.758900    1.363100    4.180500
