22

O      1.224000    0.000000    0.000000
C      0.000000    0.000000    0.000000
N     -0.718000    0.000000    1.154000
H     -1.717000    0.061000    1.108000
C     -0.809000   -0.010000   -1.276000
C     -0.049000    0.046000    2.436000
H     -0.777000   -0.133000    3.221000
H      0.720000   -0.720000    2.476000
H      0.429000    1.010000    2.602000
H     -1.882000   -0.038000   -1.106000
H     -0.515000   -0.876000   -1.863000
H     -0.559000    0.879000   -1.850000
C      1.303900    3.523300   -3.253700
C      2.227600    3.525900   -2.208600
C      3.216600    4.488000   -2.278300
C      3.193300    5.350500   -3.373100
Br    -0.086500    2.249200   -3.253200
N      1.314300    4.364700   -4.284200
N      2.277200    5.295300   -4.344500
H      2.159800    2.812200   -1.401600
H      3.979500    4.572900   -1.517700
H      3.934100    6.128300   -3.496100
