22

O      1.224000    0.000000    0.000000
C      0.000000    0.000000    0.000000
N     -0.718000    0.000000    1.154000
H     -1.717000    0.061000    1.108000
C     -0.809000   -0.010000   -1.276000
C     -0.049000    0.046000    2.436000
H     -0.777000   -0.133000    3.221000
H      0.720000   -0.720000    2.476000
H      0.429000    1.010000    2.602000
H     -1.882000   -0.038000   -1.106000
H     -0.515000   -0.876000   -1.863000
H     -0.559000    0.879000   -1.850000
C     -1.620400   -3.124000   -2.368700
C     -1.643700   -3.788300   -3.595000
C     -2.895700   -4.049100   -4.117500
C     -3.998300   -3.627500   -3.376100
Br     0.039300   -2.720400   -1.569300
N     -2.696800   -2.736500   -1.689500
N     -3.907900   -2.993300   -2.203300
H     -0.729500   -4.074400   -4.092500
H     -3.020900   -4.558900   -5.062100
H     -5.009200   -3.796000   -3.720500
