22

O      1.224000    0.000000    0.000000
C      0.000000    0.000000    0.000000
N     -0.718000    0.000000    1.154000
H     -1.717000    0.061000    1.108000
C     -0.809000   -0.010000   -1.276000
C     -0.049000    0.046000    2.436000
H     -0.777000   -0.133000    3.221000
H      0.720000   -0.720000    2.476000
H      0.429000    1.010000    2.602000
H     -1.882000   -0.038000   -1.106000
H     -0.515000   -0.876000   -1.863000
H     -0.559000    0.879000   -1.850000
C      2.182700    2.602000    2.688500
C      0.851900    3.013100    2.761700
C      0.526300    3.819000    3.835400
C      1.548100    4.137600    4.728600
Br     2.730500    1.498800    1.260400
N      3.131600    2.927400    3.562400
N      2.807700    3.709700    4.601500
H      0.132300    2.710900    2.016000
H     -0.478000    4.190200    3.981800
H      1.369600    4.763100    5.592200
