22

O      1.224000    0.000000    0.000000
C      0.000000    0.000000    0.000000
N     -0.718000    0.000000    1.154000
H     -1.717000    0.061000    1.108000
C     -0.809000   -0.010000   -1.276000
C     -0.049000    0.046000    2.436000
H     -0.777000   -0.133000    3.221000
H      0.720000   -0.720000    2.476000
H      0.429000    1.010000    2.602000
H     -1.882000   -0.038000   -1.106000
H     -0.515000   -0.876000   -1.863000
H     -0.559000    0.879000   -1.850000
C      1.762800    4.174900    0.243300
C      1.066100    5.115000   -0.515900
C      0.833900    6.332500    0.094200
C      1.313300    6.498700    1.392600
Br     2.131300    2.480400   -0.497900
N      2.205400    4.370700    1.482500
N      1.976100    5.554700    2.067500
H      0.735200    4.888900   -1.518200
H      0.302800    7.127200   -0.410000
H      1.170000    7.423300    1.934300
