22

O      1.224000    0.000000    0.000000
C      0.000000    0.000000    0.000000
N     -0.718000    0.000000    1.154000
H     -1.717000    0.061000    1.108000
C     -0.809000   -0.010000   -1.276000
C     -0.049000    0.046000    2.436000
H     -0.777000   -0.133000    3.221000
H      0.720000   -0.720000    2.476000
H      0.429000    1.010000    2.602000
H     -1.882000   -0.038000   -1.106000
H     -0.515000   -0.876000   -1.863000
H     -0.559000    0.879000   -1.850000
C      2.621300    1.156800   -4.153300
C      2.631200    2.177800   -5.103500
C      1.815500    1.988900   -6.202400
C      1.072400    0.810500   -6.251900
Br     3.700400    1.317400   -2.615000
N      1.896900    0.043900   -4.235600
N      1.108000   -0.131900   -5.304900
H      3.244800    3.056200   -4.973000
H      1.752300    2.721500   -6.994200
H      0.412300    0.592600   -7.079900
