22

O      1.224000    0.000000    0.000000
C      0.000000    0.000000    0.000000
N     -0.718000    0.000000    1.154000
H     -1.717000    0.061000    1.108000
C     -0.809000   -0.010000   -1.276000
C     -0.049000    0.046000    2.436000
H     -0.777000   -0.133000    3.221000
H      0.720000   -0.720000    2.476000
H      0.429000    1.010000    2.602000
H     -1.882000   -0.038000   -1.106000
H     -0.515000   -0.876000   -1.863000
H     -0.559000    0.879000   -1.850000
C      3.261100    2.852600    1.646200
C      4.232100    2.244200    0.851000
C      5.164600    3.090000    0.282300
C      5.043900    4.451400    0.556300
Br     1.941200    1.786100    2.469100
N      3.178100    4.158800    1.885100
N      4.086700    4.972800    1.329500
H      4.240400    1.175500    0.699400
H      5.957400    2.716700   -0.350100
H      5.736100    5.174200    0.147000
