22

O      1.224000    0.000000    0.000000
C      0.000000    0.000000    0.000000
N     -0.718000    0.000000    1.154000
H     -1.717000    0.061000    1.108000
C     -0.809000   -0.010000   -1.276000
C     -0.049000    0.046000    2.436000
H     -0.777000   -0.133000    3.221000
H      0.720000   -0.720000    2.476000
H      0.429000    1.010000    2.602000
H     -1.882000   -0.038000   -1.106000
H     -0.515000   -0.876000   -1.863000
H     -0.559000    0.879000   -1.850000
C      4.046500    3.596300    0.859200
C      4.306100    4.415000   -0.239800
C      4.539100    5.747500    0.040700
C      4.492200    6.136900    1.378400
Br     3.715300    1.760200    0.584300
N      4.010100    4.005400    2.124700
N      4.237200    5.299900    2.388500
H      4.320400    4.015800   -1.242500
H      4.749600    6.463100   -0.741200
H      4.664000    7.162200    1.675200
