22

O      1.224000    0.000000    0.000000
C      0.000000    0.000000    0.000000
N     -0.718000    0.000000    1.154000
H     -1.717000    0.061000    1.108000
C     -0.809000   -0.010000   -1.276000
C     -0.049000    0.046000    2.436000
H     -0.777000   -0.133000    3.221000
H      0.720000   -0.720000    2.476000
H      0.429000    1.010000    2.602000
H     -1.882000   -0.038000   -1.106000
H     -0.515000   -0.876000   -1.863000
H     -0.559000    0.879000   -1.850000
C     -1.654900   -3.657100   -3.562100
C     -2.719100   -2.767200   -3.706600
C     -3.948100   -3.334300   -3.982800
C     -4.002000   -4.723300   -4.088400
Br     0.065800   -2.984200   -3.183700
N     -1.745500   -4.980000   -3.670300
N     -2.941500   -5.522600   -3.938400
H     -2.574200   -1.702300   -3.605600
H     -4.834900   -2.730500   -4.112700
H     -4.928000   -5.238600   -4.302600
