22

O      1.224000    0.000000    0.000000
C      0.000000    0.000000    0.000000
N     -0.718000    0.000000    1.154000
H     -1.717000    0.061000    1.108000
C     -0.809000   -0.010000   -1.276000
C     -0.049000    0.046000    2.436000
H     -0.777000   -0.133000    3.221000
H      0.720000   -0.720000    2.476000
H      0.429000    1.010000    2.602000
H     -1.882000   -0.038000   -1.106000
H     -0.515000   -0.876000   -1.863000
H     -0.559000    0.879000   -1.850000
C      0.534000   -4.440500   -0.842700
C      0.492400   -5.126000   -2.056700
C      0.726000   -6.486000   -1.991200
C      0.977100   -7.031700   -0.733300
Br     0.228400   -2.579600   -0.822900
N      0.777500   -4.997200    0.340800
N      1.003100   -6.317400    0.395900
H      0.288600   -4.610100   -2.982700
H      0.715600   -7.106300   -2.876100
H      1.168700   -8.087800   -0.603000
