22

O      1.224000    0.000000    0.000000
C      0.000000    0.000000    0.000000
N     -0.718000    0.000000    1.154000
H     -1.717000    0.061000    1.108000
C     -0.809000   -0.010000   -1.276000
C     -0.049000    0.046000    2.436000
H     -0.777000   -0.133000    3.221000
H      0.720000   -0.720000    2.476000
H      0.429000    1.010000    2.602000
H     -1.882000   -0.038000   -1.106000
H     -0.515000   -0.876000   -1.863000
H     -0.559000    0.879000   -1.850000
C      4.568100   -3.804100   -2.347200
C      4.756500   -2.684600   -3.157600
C      5.330100   -2.921400   -4.391800
C      5.659600   -4.240200   -4.701200
Br     3.792100   -3.588800   -0.641900
N      4.896200   -5.050300   -2.678000
N      5.452300   -5.271800   -3.877300
H      4.466200   -1.699500   -2.825300
H      5.517800   -2.120700   -5.092800
H      6.111400   -4.503000   -5.647600
