22

O      1.224000    0.000000    0.000000
C      0.000000    0.000000    0.000000
N     -0.718000    0.000000    1.154000
H     -1.717000    0.061000    1.108000
C     -0.809000   -0.010000   -1.276000
C     -0.049000    0.046000    2.436000
H     -0.777000   -0.133000    3.221000
H      0.720000   -0.720000    2.476000
H      0.429000    1.010000    2.602000
H     -1.882000   -0.038000   -1.106000
H     -0.515000   -0.876000   -1.863000
H     -0.559000    0.879000   -1.850000
C      2.352200    3.765700    1.995000
C      3.593300    4.384500    1.846000
C      3.564700    5.736000    1.561600
C      2.313100    6.340100    1.453100
Br     2.281100    1.921900    2.384700
N      1.175800    4.377100    1.883900
N      1.156600    5.688700    1.607800
H      4.511500    3.826500    1.949800
H      4.472700    6.306600    1.427700
H      2.210900    7.393600    1.232600
