22

O      1.224000    0.000000    0.000000
C      0.000000    0.000000    0.000000
N     -0.718000    0.000000    1.154000
H     -1.717000    0.061000    1.108000
C     -0.809000   -0.010000   -1.276000
C     -0.049000    0.046000    2.436000
H     -0.777000   -0.133000    3.221000
H      0.720000   -0.720000    2.476000
H      0.429000    1.010000    2.602000
H     -1.882000   -0.038000   -1.106000
H     -0.515000   -0.876000   -1.863000
H     -0.559000    0.879000   -1.850000
C      5.434400    2.754300    2.691100
C      5.096300    2.695300    4.043000
C      6.064800    3.128200    4.927900
C      7.269700    3.575700    4.388100
Br     4.181700    2.186300    1.400900
N      6.597600    3.188700    2.213100
N      7.532100    3.607000    3.078100
H      4.131600    2.330800    4.361900
H      5.900400    3.122300    5.995900
H      8.074500    3.929500    5.017500
