22

O      1.224000    0.000000    0.000000
C      0.000000    0.000000    0.000000
N     -0.718000    0.000000    1.154000
H     -1.717000    0.061000    1.108000
C     -0.809000   -0.010000   -1.276000
C     -0.049000    0.046000    2.436000
H     -0.777000   -0.133000    3.221000
H      0.720000   -0.720000    2.476000
H      0.429000    1.010000    2.602000
H     -1.882000   -0.038000   -1.106000
H     -0.515000   -0.876000   -1.863000
H     -0.559000    0.879000   -1.850000
C      4.725300   -1.006600   -4.073100
C      6.112600   -1.003400   -3.929400
C      6.841000   -1.174200   -5.090800
C      6.125600   -1.331100   -6.276900
Br     3.639100   -0.780600   -2.548000
N      4.077100   -1.159400   -5.224800
N      4.791000   -1.324700   -6.347200
H      6.573500   -0.873900   -2.962000
H      7.921600   -1.186600   -5.085700
H      6.626100   -1.469500   -7.225100
