22

H     -0.754300   -0.173300    3.220300
H      0.760300   -0.685200    2.452100
C     -0.038900    0.050500    2.435000
H      0.401600    1.029800    2.616000
N     -0.713000    0.000000    1.154400
H     -1.712600    0.063700    1.111800
O      1.225500   -0.000000   -0.000000
C      0.000000   -0.000000   -0.000000
C     -0.806800   -0.008800   -1.275400
H     -1.879900   -0.053500   -1.105800
H     -0.500400   -0.864800   -1.870900
H     -0.569100    0.889100   -1.840600
C      0.200400   -1.923300    5.287800
C      0.078200   -3.296000    5.503100
C     -0.184200   -3.683000    6.803000
C     -0.299500   -2.675200    7.759200
Br     0.558600   -1.290400    3.547800
N      0.083600   -0.989400    6.228200
N     -0.171100   -1.373200    7.487000
H      0.185100   -4.000100    4.692000
H     -0.296500   -4.723300    7.073100
H     -0.503900   -2.900700    8.796600
