22

H     -1.712600    0.063700    1.111800
H     -0.754300   -0.173300    3.220300
N     -0.713000    0.000000    1.154400
C     -0.038900    0.050500    2.435000
H      0.760300   -0.685200    2.452100
H      0.401600    1.029800    2.616000
C      0.000000   -0.000000   -0.000000
O      1.225500   -0.000000   -0.000000
C     -0.806800   -0.008800   -1.275400
H     -1.879900   -0.053500   -1.105800
H     -0.500400   -0.864800   -1.870900
H     -0.569100    0.889100   -1.840600
C     -2.841900    0.000400    4.020900
C     -3.327200   -1.215900    4.500900
C     -4.318800   -1.135300    5.459400
C     -4.731000    0.138700    5.847000
Br    -1.486400    0.000300    2.709700
N     -3.261400    1.199500    4.416200
N     -4.223800    1.269300    5.346600
H     -2.940500   -2.155000    4.135000
H     -4.760400   -2.020500    5.894200
H     -5.502000    0.281500    6.591500
