22

O      1.224000    0.000000    0.000000
C      0.000000    0.000000    0.000000
N     -0.718000    0.000000    1.154000
H     -1.717000    0.061000    1.108000
C     -0.809000   -0.010000   -1.276000
C     -0.049000    0.046000    2.436000
H     -0.777000   -0.133000    3.221000
H      0.720000   -0.720000    2.476000
H      0.429000    1.010000    2.602000
H     -1.882000   -0.038000   -1.106000
H     -0.515000   -0.876000   -1.863000
H     -0.559000    0.879000   -1.850000
C     -1.549700    2.508600   -4.037600
C     -2.285700    2.346600   -5.211300
C     -2.207600    3.382600   -6.121700
C     -1.410300    4.474300   -5.781100
Br    -1.588600    1.151100   -2.729100
N     -0.798500    3.567600   -3.747400
N     -0.727900    4.568600   -4.636000
H     -2.875700    1.459000   -5.382300
H     -2.740700    3.353200   -7.061300
H     -1.300300    5.322400   -6.442600
