22

O      1.225500   -0.000000   -0.000000
C      0.000000   -0.000000   -0.000000
N     -0.713000    0.000000    1.154400
H     -1.712600    0.063700    1.111800
C     -0.806800   -0.008800   -1.275400
H     -0.569100    0.889100   -1.840600
H     -0.500400   -0.864800   -1.870900
H     -1.879900   -0.053500   -1.105800
C     -0.038900    0.050500    2.435000
H      0.401600    1.029800    2.616000
H      0.760300   -0.685200    2.452100
H     -0.754300   -0.173300    3.220300
C     -1.061100    3.838800   -0.678900
C     -1.406400    4.630300    0.416400
C     -2.115800    5.780800    0.131100
C     -2.412600    6.033500   -1.207300
Br    -0.091500    2.245900   -0.397300
N     -1.362900    4.113600   -1.945200
N     -2.051500    5.231900   -2.213700
H     -1.128400    4.346600    1.420100
H     -2.430400    6.460800    0.909900
H     -2.964200    6.913500   -1.507800
