22

O      1.224000    0.000000    0.000000
C      0.000000    0.000000    0.000000
N     -0.718000    0.000000    1.154000
H     -1.717000    0.061000    1.108000
C     -0.809000   -0.010000   -1.276000
C     -0.049000    0.046000    2.436000
H     -0.777000   -0.133000    3.221000
H      0.720000   -0.720000    2.476000
H      0.429000    1.010000    2.602000
H     -1.882000   -0.038000   -1.106000
H     -0.515000   -0.876000   -1.863000
H     -0.559000    0.879000   -1.850000
C     -1.279700   -4.852800   -2.659600
C     -1.802900   -4.309700   -3.833000
C     -2.503400   -5.182300   -4.643100
C     -2.616500   -6.503400   -4.212500
Br    -0.306300   -3.745100   -1.484000
N     -1.408800   -6.121900   -2.281600
N     -2.089900   -6.962200   -3.073200
H     -1.660100   -3.268300   -4.078400
H     -2.947700   -4.859300   -5.573700
H     -3.149700   -7.243600   -4.792800
