22

H     -1.712600    0.063700    1.111800
H     -0.754300   -0.173300    3.220300
N     -0.713000    0.000000    1.154400
C     -0.038900    0.050500    2.435000
H      0.760300   -0.685200    2.452100
H      0.401600    1.029800    2.616000
C      0.000000   -0.000000   -0.000000
O      1.225500   -0.000000   -0.000000
C     -0.806800   -0.008800   -1.275400
H     -1.879900   -0.053500   -1.105800
H     -0.500400   -0.864800   -1.870900
H     -0.569100    0.889100   -1.840600
C     -3.023700    0.000300    3.522600
C     -3.549000   -1.216000    3.958500
C     -4.620400   -1.135400    4.826900
C     -5.064800    0.138600    5.177100
Br    -1.559000    0.000200    2.334600
N     -3.476000    1.199400    3.879900
N     -4.515900    1.269200    4.722800
H     -3.131800   -2.155100    3.627700
H     -5.098200   -2.020600    5.221600
H     -5.897700    0.281400    5.851600
