22

O      1.225000    0.000000    0.000000
C      0.000000    0.000000    0.000000
N     -0.713000    0.000000    1.155000
H     -1.713000    0.064000    1.113000
C     -0.808000   -0.008000   -1.275000
C     -0.038000    0.050000    2.436000
H     -0.754000   -0.174000    3.221000
H      0.761000   -0.686000    2.452000
H      0.402000    1.029000    2.617000
H     -1.881000   -0.053000   -1.104000
H     -0.502000   -0.864000   -1.870000
H     -0.570000    0.890000   -1.840000
C     -5.287300   -2.302100   -0.405800
C     -5.930100   -2.317300   -1.643600
C     -7.233600   -2.774800   -1.642300
C     -7.770800   -3.171100   -0.418500
Br    -3.505000   -1.695000   -0.299000
N     -5.834200   -2.689200    0.743500
N     -7.099500   -3.131800    0.736400
H     -5.425200   -1.988000   -2.539100
H     -7.817700   -2.825400   -2.550100
H     -8.783800   -3.540100   -0.338500
