22

H     -0.500400   -0.864800   -1.870900
C     -0.806800   -0.008800   -1.275400
H     -0.569100    0.889100   -1.840600
H     -1.879900   -0.053500   -1.105800
C      0.000000   -0.000000   -0.000000
O      1.225500   -0.000000   -0.000000
N     -0.713000    0.000000    1.154400
H     -1.712600    0.063700    1.111800
C     -0.038900    0.050500    2.435000
H      0.401600    1.029800    2.616000
H      0.760300   -0.685200    2.452100
H     -0.754300   -0.173300    3.220300
C     -1.758500   -1.749900   -4.803500
C     -2.103000   -0.808700   -5.773400
C     -2.811800   -1.289300   -6.857400
C     -3.108800   -2.651300   -6.874000
Br    -0.789800   -1.196000   -3.283100
N     -2.060500   -3.044600   -4.854300
N     -2.748400   -3.503100   -5.909400
H     -1.824900    0.229000   -5.668300
H     -3.125700   -0.640400   -7.662500
H     -3.660000   -3.099900   -7.688700
