22

H     -1.712600    0.063700    1.111800
N     -0.713000    0.000000    1.154400
C      0.000000   -0.000000   -0.000000
O      1.225500   -0.000000   -0.000000
C     -0.038900    0.050500    2.435000
H     -0.754300   -0.173300    3.220300
H      0.760300   -0.685200    2.452100
H      0.401600    1.029800    2.616000
C     -0.806800   -0.008800   -1.275400
H     -1.879900   -0.053500   -1.105800
H     -0.500400   -0.864800   -1.870900
H     -0.569100    0.889100   -1.840600
C     -3.609300    1.426900    1.698500
C     -4.229800    0.678400    2.698600
C     -5.489400    1.101300    3.076800
C     -6.009100    2.220900    2.428900
Br    -1.887100    0.932600    1.110100
N     -4.138500    2.492100    1.102400
N     -5.361000    2.896100    1.475000
H     -3.741500   -0.177000    3.140200
H     -6.053300    0.588800    3.843000
H     -6.988100    2.610600    2.670900
