22

O      1.225500   -0.000000   -0.000000
C      0.000000   -0.000000   -0.000000
N     -0.713000    0.000000    1.154400
H     -1.712600    0.063700    1.111800
C     -0.806800   -0.008800   -1.275400
C     -0.038900    0.050500    2.435000
H     -0.754300   -0.173300    3.220300
H      0.760300   -0.685200    2.452100
H      0.401600    1.029800    2.616000
H     -1.879900   -0.053500   -1.105800
H     -0.500400   -0.864800   -1.870900
H     -0.569100    0.889100   -1.840600
C      4.200600    3.167600    4.385200
C      2.983500    3.480100    4.990600
C      3.062800    4.127600    6.208300
C      4.336200    4.401100    6.705300
Br     4.202500    2.282800    2.719700
N      5.399100    3.445500    4.891600
N      5.467400    4.074000    6.073600
H      2.045100    3.224400    4.522500
H      2.176900    4.412700    6.757600
H      4.477800    4.904800    7.651400
