22

O      1.225500   -0.000000   -0.000000
C      0.000000   -0.000000   -0.000000
N     -0.713000    0.000000    1.154400
H     -1.712600    0.063700    1.111800
C     -0.806800   -0.008800   -1.275400
C     -0.038900    0.050500    2.435000
H     -0.754300   -0.173300    3.220300
H      0.760300   -0.685200    2.452100
H      0.401600    1.029800    2.616000
H     -1.879900   -0.053500   -1.105800
H     -0.500400   -0.864800   -1.870900
H     -0.569100    0.889100   -1.840600
C     -1.505700   -0.926300   -6.251800
C     -1.653900    0.035200   -7.251300
C     -2.101100   -0.427600   -8.473700
C     -2.356800   -1.793400   -8.585600
Br    -0.900600   -0.398000   -4.545500
N     -1.760400   -2.224100   -6.396700
N     -2.193900   -2.665100   -7.585900
H     -1.428500    1.074100   -7.064500
H     -2.248400    0.237800   -9.312400
H     -2.708900   -2.228800   -9.510400
