22

O      1.225500   -0.000000   -0.000000
C      0.000000   -0.000000   -0.000000
N     -0.713000    0.000000    1.154400
H     -1.712600    0.063700    1.111800
C     -0.806800   -0.008800   -1.275400
C     -0.038900    0.050500    2.435000
H     -0.754300   -0.173300    3.220300
H      0.760300   -0.685200    2.452100
H      0.401600    1.029800    2.616000
H     -1.879900   -0.053500   -1.105800
H     -0.500400   -0.864800   -1.870900
H     -0.569100    0.889100   -1.840600
C      2.642300   -3.187900    0.595400
C      2.614800   -3.604300   -0.735600
C      1.584500   -4.457200   -1.081000
C      0.685300   -4.813000   -0.076900
Br     4.008900   -2.022000    1.169500
N      1.764200   -3.549800    1.527100
N      0.767400   -4.377700    1.183900
H      3.361100   -3.270800   -1.440500
H      1.475400   -4.836300   -2.087100
H     -0.146100   -5.476200   -0.271400
