22

O      1.225500   -0.000000   -0.000000
C      0.000000   -0.000000   -0.000000
N     -0.713000    0.000000    1.154400
H     -1.712600    0.063700    1.111800
C     -0.806800   -0.008800   -1.275400
C     -0.038900    0.050500    2.435000
H     -0.754300   -0.173300    3.220300
H      0.760300   -0.685200    2.452100
H      0.401600    1.029800    2.616000
H     -1.879900   -0.053500   -1.105800
H     -0.500400   -0.864800   -1.870900
H     -0.569100    0.889100   -1.840600
C     -4.996600   -1.476000   -1.067600
C     -6.327200   -1.538300   -0.654200
C     -7.266000   -1.679900   -1.657700
C     -6.795700   -1.745700   -2.968400
Br    -3.636800   -1.283000    0.224900
N     -4.585500   -1.542400   -2.331200
N     -5.502600   -1.679800   -3.299000
H     -6.590700   -1.478000    0.390900
H     -8.323100   -1.737800   -1.441100
H     -7.470100   -1.856300   -3.806200
