22

O      1.225500   -0.000000   -0.000000
C      0.000000   -0.000000   -0.000000
N     -0.713000    0.000000    1.154400
H     -1.712600    0.063700    1.111800
C     -0.806800   -0.008800   -1.275400
C     -0.038900    0.050500    2.435000
H     -0.754300   -0.173300    3.220300
H      0.760300   -0.685200    2.452100
H      0.401600    1.029800    2.616000
H     -1.879900   -0.053500   -1.105800
H     -0.500400   -0.864800   -1.870900
H     -0.569100    0.889100   -1.840600
C     -1.030900   -5.297500   -3.057400
C     -1.267300   -5.244000   -4.431000
C     -1.760000   -6.399800   -5.005100
C     -1.969400   -7.492100   -4.164600
Br    -0.357800   -3.771800   -2.176700
N     -1.243600   -6.361000   -2.286800
N     -1.721800   -7.478700   -2.851500
H     -1.071800   -4.345600   -4.996600
H     -1.976000   -6.460300   -6.062200
H     -2.352800   -8.430200   -4.541400
