22

O      1.225500   -0.000000   -0.000000
C      0.000000   -0.000000   -0.000000
N     -0.713000    0.000000    1.154400
H     -1.712600    0.063700    1.111800
C     -0.806800   -0.008800   -1.275400
C     -0.038900    0.050500    2.435000
H     -0.754300   -0.173300    3.220300
H      0.760300   -0.685200    2.452100
H      0.401600    1.029800    2.616000
H     -1.879900   -0.053500   -1.105800
H     -0.500400   -0.864800   -1.870900
H     -0.569100    0.889100   -1.840600
C     -1.557900    5.805300   -1.026400
C     -1.850300    6.624400    0.064000
C     -2.453800    7.831500   -0.231200
C     -2.707500    8.107800   -1.573800
Br    -0.733200    4.135200   -0.731100
N     -1.815900    6.104200   -2.296900
N     -2.401600    7.277300   -2.575100
H     -1.612800    6.318600    1.071600
H     -2.720400    8.536500    0.543100
H     -3.176900    9.031700   -1.882100
