22

O      1.225500   -0.000000   -0.000000
C      0.000000   -0.000000   -0.000000
N     -0.713000    0.000000    1.154400
H     -1.712600    0.063700    1.111800
C     -0.806800   -0.008800   -1.275400
C     -0.038900    0.050500    2.435000
H     -0.754300   -0.173300    3.220300
H      0.760300   -0.685200    2.452100
H      0.401600    1.029800    2.616000
H     -1.879900   -0.053500   -1.105800
H     -0.500400   -0.864800   -1.870900
H     -0.569100    0.889100   -1.840600
C      5.729000   -2.762100    1.598000
C      6.286400   -3.712100    0.742300
C      7.402800   -4.372600    1.217600
C      7.856000   -4.028200    2.490100
Br     4.201900   -1.804200    1.043800
N      6.190900   -2.460100    2.808600
N      7.274500   -3.105500    3.262400
H      5.859100   -3.907400   -0.229500
H      7.908100   -5.126500    0.630900
H      8.723200   -4.501700    2.928900
