22

O      1.225500   -0.000000   -0.000000
C      0.000000   -0.000000   -0.000000
N     -0.713000    0.000000    1.154400
H     -1.712600    0.063700    1.111800
C     -0.806800   -0.008800   -1.275400
C     -0.038900    0.050500    2.435000
H     -0.754300   -0.173300    3.220300
H      0.760300   -0.685200    2.452100
H      0.401600    1.029800    2.616000
H     -1.879900   -0.053500   -1.105800
H     -0.500400   -0.864800   -1.870900
H     -0.569100    0.889100   -1.840600
C     -1.964900   -4.435500    0.781900
C     -2.358900   -5.195500   -0.319200
C     -3.168500   -6.281000   -0.046100
C     -3.507200   -6.506400    1.287200
Br    -0.858400   -2.931500    0.516900
N     -2.309400   -4.682600    2.043000
N     -3.095200   -5.737700    2.299800
H     -2.041600   -4.937400   -1.318200
H     -3.527400   -6.932200   -0.830300
H     -4.136800   -7.335800    1.578300
