22

O      1.225500   -0.000000   -0.000000
C      0.000000   -0.000000   -0.000000
N     -0.713000    0.000000    1.154400
H     -1.712600    0.063700    1.111800
C     -0.806800   -0.008800   -1.275400
C     -0.038900    0.050500    2.435000
H     -0.754300   -0.173300    3.220300
H      0.760300   -0.685200    2.452100
H      0.401600    1.029800    2.616000
H     -1.879900   -0.053500   -1.105800
H     -0.500400   -0.864800   -1.870900
H     -0.569100    0.889100   -1.840600
C     -3.570200    2.691000    0.471900
C     -4.163700    2.812800    1.728300
C     -5.369500    3.486100    1.764500
C     -5.867400    3.971200    0.556200
Br    -1.921700    1.788800    0.313700
N     -4.077100    3.168500   -0.661700
N     -5.247400    3.820600   -0.618100
H     -3.696000    2.400100    2.609200
H     -5.908900    3.633600    2.689200
H     -6.804500    4.507900    0.505400
