22

O      1.225500   -0.000000   -0.000000
C      0.000000   -0.000000   -0.000000
N     -0.713000    0.000000    1.154400
H     -1.712600    0.063700    1.111800
C     -0.806800   -0.008800   -1.275400
C     -0.038900    0.050500    2.435000
H     -0.754300   -0.173300    3.220300
H      0.760300   -0.685200    2.452100
H      0.401600    1.029800    2.616000
H     -1.879900   -0.053500   -1.105800
H     -0.500400   -0.864800   -1.870900
H     -0.569100    0.889100   -1.840600
C      5.237800    2.465600   -1.422300
C      5.794200    3.415800   -0.566100
C      6.910700    4.076700   -1.040400
C      7.365100    3.732400   -2.312500
Br     3.710600    1.507100   -0.869400
N      5.700900    2.163700   -2.632400
N      6.784700    2.809500   -3.085400
H      5.365900    3.611000    0.405300
H      7.415200    4.830800   -0.453400
H      8.232500    4.206300   -2.750600
