22

O      1.225500   -0.000000   -0.000000
C      0.000000   -0.000000   -0.000000
N     -0.713000    0.000000    1.154400
H     -1.712600    0.063700    1.111800
C     -0.806800   -0.008800   -1.275400
C     -0.038900    0.050500    2.435000
H     -0.754300   -0.173300    3.220300
H      0.760300   -0.685200    2.452100
H      0.401600    1.029800    2.616000
H     -1.879900   -0.053500   -1.105800
H     -0.500400   -0.864800   -1.870900
H     -0.569100    0.889100   -1.840600
C      4.681300   -1.195600    3.290700
C      5.161500   -2.504500    3.331200
C      6.120100   -2.767300    4.290600
C      6.507700   -1.710800    5.113300
Br     3.369900   -0.732800    2.016900
N      5.076500   -0.211900    4.094600
N      6.007000   -0.475000    5.022900
H      4.795700   -3.254900    2.647000
H      6.555200   -3.750100    4.403200
H      7.252300   -1.839900    5.886500
