22

O      1.225500   -0.000000   -0.000000
C      0.000000   -0.000000   -0.000000
N     -0.713000    0.000000    1.154400
H     -1.712600    0.063700    1.111800
C     -0.806800   -0.008800   -1.275400
C     -0.038900    0.050500    2.435000
H     -0.754300   -0.173300    3.220300
H      0.760300   -0.685200    2.452100
H      0.401600    1.029800    2.616000
H     -1.879900   -0.053500   -1.105800
H     -0.500400   -0.864800   -1.870900
H     -0.569100    0.889100   -1.840600
C      4.365900   -1.296000   -3.558000
C      4.802000   -0.332800   -4.467600
C      5.671400   -0.775000   -5.445900
C      6.022300   -2.124000   -5.427100
Br     3.176500   -0.795100   -2.182800
N      4.723800   -2.577400   -3.572100
N      5.567700   -2.998500   -4.524600
H      4.470600    0.692100   -4.397500
H      6.066300   -0.106700   -6.197700
H      6.697500   -2.542900   -6.160200
