22

O      1.225500   -0.000000   -0.000000
C      0.000000   -0.000000   -0.000000
N     -0.713000    0.000000    1.154400
H     -1.712600    0.063700    1.111800
C     -0.806800   -0.008800   -1.275400
C     -0.038900    0.050500    2.435000
H     -0.754300   -0.173300    3.220300
H      0.760300   -0.685200    2.452100
H      0.401600    1.029800    2.616000
H     -1.879900   -0.053500   -1.105800
H     -0.500400   -0.864800   -1.870900
H     -0.569100    0.889100   -1.840600
C      4.020600    3.505900    2.023700
C      4.408500    3.384200    3.358000
C      5.180400    4.414300    3.859500
C      5.491300    5.460800    2.992600
Br     2.964600    2.152700    1.242600
N      4.337800    4.522300    1.225900
N      5.087000    5.517800    1.720100
H      4.114800    2.530200    3.949200
H      5.531600    4.414000    4.881500
H      6.090800    6.301500    3.313100
