22

O      1.225500   -0.000000   -0.000000
C      0.000000   -0.000000   -0.000000
N     -0.713000    0.000000    1.154400
H     -1.712600    0.063700    1.111800
C     -0.806800   -0.008800   -1.275400
C     -0.038900    0.050500    2.435000
H     -0.754300   -0.173300    3.220300
H      0.760300   -0.685200    2.452100
H      0.401600    1.029800    2.616000
H     -1.879900   -0.053500   -1.105800
H     -0.500400   -0.864800   -1.870900
H     -0.569100    0.889100   -1.840600
C      3.277200   -4.402900    0.778400
C      3.562800   -5.225100   -0.311500
C      4.124900   -6.451200   -0.013000
C      4.348300   -6.741500    1.332100
Br     2.507800   -2.707400    0.478700
N      3.505300   -4.715500    2.051300
N      4.051000   -5.907100    2.332700
H      3.351100   -4.907500   -1.321200
H      4.382900   -7.160100   -0.786600
H      4.784700   -7.680600    1.643000
