22

O      1.225500   -0.000000   -0.000000
C      0.000000   -0.000000   -0.000000
N     -0.713000    0.000000    1.154400
H     -1.712600    0.063700    1.111800
C     -0.806800   -0.008800   -1.275400
C     -0.038900    0.050500    2.435000
H     -0.754300   -0.173300    3.220300
H      0.760300   -0.685200    2.452100
H      0.401600    1.029800    2.616000
H     -1.879900   -0.053500   -1.105800
H     -0.500400   -0.864800   -1.870900
H     -0.569100    0.889100   -1.840600
C      1.625800   -3.152800   -3.755200
C      1.681700   -2.658600   -5.058300
C      1.779600   -3.604800   -6.060000
C      1.812400   -4.943800   -5.673500
Br     1.491200   -1.943200   -2.314500
N      1.659800   -4.441100   -3.424900
N      1.754900   -5.353000   -4.402600
H      1.649300   -1.597700   -5.255000
H      1.829100   -3.324000   -7.102300
H      1.888100   -5.740500   -6.400500
