22

O      1.225500   -0.000000   -0.000000
C      0.000000   -0.000000   -0.000000
N     -0.713000    0.000000    1.154400
H     -1.712600    0.063700    1.111800
C     -0.806800   -0.008800   -1.275400
C     -0.038900    0.050500    2.435000
H     -0.754300   -0.173300    3.220300
H      0.760300   -0.685200    2.452100
H      0.401600    1.029800    2.616000
H     -1.879900   -0.053500   -1.105800
H     -0.500400   -0.864800   -1.870900
H     -0.569100    0.889100   -1.840600
C      1.193900    4.844800    0.853000
C      1.189500    5.306100    2.169300
C      1.166400    6.678100    2.329000
C      1.150000    7.456100    1.172400
Br     1.224800    2.987700    0.526000
N      1.177700    5.620200   -0.228100
N      1.155300    6.950400   -0.064600
H      1.203500    4.619100    3.001700
H      1.161200    7.134900    3.308300
H      1.131600    8.536100    1.217600
