22

O      1.225500   -0.000000   -0.000000
C      0.000000   -0.000000   -0.000000
N     -0.713000    0.000000    1.154400
H     -1.712600    0.063700    1.111800
C     -0.806800   -0.008800   -1.275400
C     -0.038900    0.050500    2.435000
H     -0.754300   -0.173300    3.220300
H      0.760300   -0.685200    2.452100
H      0.401600    1.029800    2.616000
H     -1.879900   -0.053500   -1.105800
H     -0.500400   -0.864800   -1.870900
H     -0.569100    0.889100   -1.840600
C     -1.621500    3.950500   -0.698900
C     -2.016800    4.710300    0.402000
C     -2.826600    5.795500    0.128200
C     -3.164300    6.020800   -1.205400
Br    -0.514700    2.446900   -0.432900
N     -1.965100    4.197500   -1.960200
N     -2.751000    5.252300   -2.217600
H     -1.700300    4.452300    1.401200
H     -3.186400    6.446500    0.912100
H     -3.793900    6.850000   -1.497000
