22

O      1.225500   -0.000000   -0.000000
C      0.000000   -0.000000   -0.000000
N     -0.713000    0.000000    1.154400
H     -1.712600    0.063700    1.111800
C     -0.806800   -0.008800   -1.275400
C     -0.038900    0.050500    2.435000
H     -0.754300   -0.173300    3.220300
H      0.760300   -0.685200    2.452100
H      0.401600    1.029800    2.616000
H     -1.879900   -0.053500   -1.105800
H     -0.500400   -0.864800   -1.870900
H     -0.569100    0.889100   -1.840600
C      6.964400    0.001500    2.124000
C      7.604600   -1.214700    2.361500
C      8.892300   -1.133700    2.855100
C      9.417900    0.140400    3.064200
Br     5.203200    0.001000    1.449600
N      7.499900    1.200700    2.336400
N      8.749900    1.270800    2.815500
H      7.109600   -2.153800    2.166200
H      9.473100   -2.018900    3.072000
H     10.418400    0.283400    3.448200
