22

O      1.225500   -0.000000   -0.000000
C      0.000000   -0.000000   -0.000000
N     -0.713000    0.000000    1.154400
H     -1.712600    0.063700    1.111800
C     -0.806800   -0.008800   -1.275400
C     -0.038900    0.050500    2.435000
H     -0.754300   -0.173300    3.220300
H      0.760300   -0.685200    2.452100
H      0.401600    1.029800    2.616000
H     -1.879900   -0.053500   -1.105800
H     -0.500400   -0.864800   -1.870900
H     -0.569100    0.889100   -1.840600
C      5.133400    1.611800    4.424600
C      5.568800    0.648800    5.334800
C      6.437100    1.091300    6.313900
C      6.787800    2.440300    6.295200
Br     3.945400    1.110500    3.048400
N      5.491000    2.893200    4.439000
N      6.333900    3.314700    5.392200
H      5.237700   -0.376100    5.264500
H      6.831500    0.423100    7.066100
H      7.462300    2.859500    7.029000
