22

O      1.225500   -0.000000   -0.000000
C      0.000000   -0.000000   -0.000000
N     -0.713000    0.000000    1.154400
H     -1.712600    0.063700    1.111800
C     -0.806800   -0.008800   -1.275400
C     -0.038900    0.050500    2.435000
H     -0.754300   -0.173300    3.220300
H      0.760300   -0.685200    2.452100
H      0.401600    1.029800    2.616000
H     -1.879900   -0.053500   -1.105800
H     -0.500400   -0.864800   -1.870900
H     -0.569100    0.889100   -1.840600
C      4.260500   -4.602900   -2.654900
C      4.598900   -4.508600   -4.004800
C      5.269000   -5.593000   -4.537200
C      5.537200   -6.661300   -3.682700
Br     3.343600   -3.175400   -1.831500
N      4.534200   -5.641500   -1.869800
N      5.184600   -6.689800   -2.394000
H      4.345200   -3.634000   -4.584200
H      5.575100   -5.617400   -5.573300
H      6.057400   -7.544200   -4.027200
