22

O      1.225500   -0.000000   -0.000000
C      0.000000   -0.000000   -0.000000
N     -0.713000    0.000000    1.154400
H     -1.712600    0.063700    1.111800
C     -0.806800   -0.008800   -1.275400
C     -0.038900    0.050500    2.435000
H     -0.754300   -0.173300    3.220300
H      0.760300   -0.685200    2.452100
H      0.401600    1.029800    2.616000
H     -1.879900   -0.053500   -1.105800
H     -0.500400   -0.864800   -1.870900
H     -0.569100    0.889100   -1.840600
C      3.783400    5.474600   -0.965800
C      4.067700    6.297000    0.124300
C      4.629600    7.523300   -0.173900
C      4.854100    7.813600   -1.518800
Br     3.014400    3.778800   -0.666600
N      4.012500    5.787200   -2.238500
N      4.558000    6.978900   -2.519600
H      3.855200    5.979400    1.133800
H      4.886600    8.232400    0.599900
H      5.290400    8.752700   -1.829400
