22

O      1.225500   -0.000000   -0.000000
C      0.000000   -0.000000   -0.000000
N     -0.713000    0.000000    1.154400
H     -1.712600    0.063700    1.111800
C     -0.806800   -0.008800   -1.275400
C     -0.038900    0.050500    2.435000
H     -0.754300   -0.173300    3.220300
H      0.760300   -0.685200    2.452100
H      0.401600    1.029800    2.616000
H     -1.879900   -0.053500   -1.105800
H     -0.500400   -0.864800   -1.870900
H     -0.569100    0.889100   -1.840600
C      0.133200    5.213400   -3.012400
C      0.010500    6.403300   -2.295200
C     -0.251300    7.535400   -3.042400
C     -0.365500    7.377900   -4.422800
Br     0.490600    3.610100   -2.086000
N      0.017400    5.102400   -4.333200
N     -0.236600    6.205500   -5.051100
H      0.116500    6.421300   -1.221100
H     -0.363900    8.505900   -2.580800
H     -0.569400    8.217500   -5.072700
