22

O      1.225500   -0.000000   -0.000000
C      0.000000   -0.000000   -0.000000
N     -0.713000    0.000000    1.154400
H     -1.712600    0.063700    1.111800
C     -0.806800   -0.008800   -1.275400
C     -0.038900    0.050500    2.435000
H     -0.754300   -0.173300    3.220300
H      0.760300   -0.685200    2.452100
H      0.401600    1.029800    2.616000
H     -1.879900   -0.053500   -1.105800
H     -0.500400   -0.864800   -1.870900
H     -0.569100    0.889100   -1.840600
C     -1.862500    4.576400    2.639600
C     -2.207600    4.478700    3.987500
C     -2.917300    5.543300    4.508500
C     -3.214400    6.597100    3.645700
Br    -0.892600    3.175400    1.831500
N     -2.164600    5.600800    1.846200
N     -2.853400    6.629900    2.359400
H     -1.929300    3.616400    4.574100
H     -3.231700    5.563600    5.542200
H     -3.766200    7.464200    3.981100
