22

H     -0.569100    0.889100   -1.840600
C     -0.806800   -0.008800   -1.275400
H     -0.500400   -0.864800   -1.870900
H     -1.879900   -0.053500   -1.105800
C      0.000000   -0.000000   -0.000000
O      1.225500   -0.000000   -0.000000
N     -0.713000    0.000000    1.154400
H     -1.712600    0.063700    1.111800
C     -0.038900    0.050500    2.435000
H      0.401600    1.029800    2.616000
H      0.760300   -0.685200    2.452100
H     -0.754300   -0.173300    3.220300
C     -3.122300    2.765900   -3.300600
C     -3.608000    4.006200   -2.886900
C     -4.598900    4.560500   -3.673800
C     -5.010200    3.833700   -4.790100
Br    -1.767600    1.923200   -2.295000
N     -3.540800    2.101500   -4.374600
N     -4.502600    2.646000   -5.133000
H     -3.222100    4.490300   -2.002700
H     -5.040800    5.518100   -3.438300
H     -5.780500    4.202900   -5.452800
