22

O      1.225000    0.000000    0.000000
C      0.000000    0.000000    0.000000
N     -0.713000    0.000000    1.155000
H     -1.713000    0.064000    1.113000
C     -0.808000   -0.008000   -1.275000
C     -0.038000    0.050000    2.436000
H     -0.754000   -0.174000    3.221000
H      0.761000   -0.686000    2.452000
H      0.402000    1.029000    2.617000
H     -1.881000   -0.053000   -1.104000
H     -0.502000   -0.864000   -1.870000
H     -0.570000    0.890000   -1.840000
C      8.144700   -0.026000   -0.015000
C      8.827200    0.580000   -1.069700
C     10.206100    0.520200   -1.011100
C     10.771800   -0.132000    0.083400
Br     6.259000    0.000000    0.000000
N      8.720900   -0.640500    1.014800
N     10.059300   -0.694200    1.064300
H      8.295000    1.062300   -1.875400
H     10.825900    0.959600   -1.779700
H     11.843400   -0.219000    0.198000
