22

O      1.225000    0.000000    0.000000
C      0.000000    0.000000    0.000000
N     -0.713000    0.000000    1.155000
H     -1.713000    0.064000    1.113000
C     -0.808000   -0.008000   -1.275000
C     -0.038000    0.050000    2.436000
H     -0.754000   -0.174000    3.221000
H      0.761000   -0.686000    2.452000
H      0.402000    1.029000    2.617000
H     -1.881000   -0.053000   -1.104000
H     -0.502000   -0.864000   -1.870000
H     -0.570000    0.890000   -1.840000
C      8.115800    0.623800   -0.110000
C      8.795500    0.897300    1.076900
C     10.167200    1.024100    0.972600
C     10.729200    0.867800   -0.293500
Br     6.240000    0.432000   -0.076000
N      8.688300    0.481100   -1.302400
N     10.019700    0.605500   -1.395200
H      8.266600    1.000800    2.012200
H     10.784200    1.235700    1.834200
H     11.795000    0.952800   -0.453500
