22

O      1.225000    0.000000    0.000000
C      0.000000    0.000000    0.000000
N     -0.713000    0.000000    1.155000
H     -1.713000    0.064000    1.113000
C     -0.808000   -0.008000   -1.275000
C     -0.038000    0.050000    2.436000
H     -0.754000   -0.174000    3.221000
H      0.761000   -0.686000    2.452000
H      0.402000    1.029000    2.617000
H     -1.881000   -0.053000   -1.104000
H     -0.502000   -0.864000   -1.870000
H     -0.570000    0.890000   -1.840000
C      4.658500    5.202700    3.003700
C      4.996700    5.108400    4.353500
C      5.666400    6.192900    4.886200
C      5.934700    7.261200    4.031700
Br     3.742000    3.775000    2.180000
N      4.932200    6.241300    2.218500
N      5.582400    7.289700    2.742900
H      4.742900    4.233700    4.933000
H      5.972300    6.217300    5.922300
H      6.454700    8.144100    4.376400
