22

O      1.225000    0.000000    0.000000
C      0.000000    0.000000    0.000000
N     -0.713000    0.000000    1.155000
H     -1.713000    0.064000    1.113000
C     -0.808000   -0.008000   -1.275000
C     -0.038000    0.050000    2.436000
H     -0.754000   -0.174000    3.221000
H      0.761000   -0.686000    2.452000
H      0.402000    1.029000    2.617000
H     -1.881000   -0.053000   -1.104000
H     -0.502000   -0.864000   -1.870000
H     -0.570000    0.890000   -1.840000
C      2.986300    4.301300   -5.126000
C      3.159000    5.657500   -4.849600
C      3.493700    6.456000   -5.926000
C      3.624200    5.834500   -7.166900
Br     2.528000    3.125000   -3.725000
N      3.119700    3.743600   -6.326500
N      3.444700    4.525200   -7.365800
H      3.034900    6.043700   -3.849200
H      3.649300    7.519800   -5.816100
H      3.883800    6.393800   -8.055000
