22

O      1.225000    0.000000    0.000000
C      0.000000    0.000000    0.000000
N     -0.713000    0.000000    1.155000
H     -1.713000    0.064000    1.113000
C     -0.808000   -0.008000   -1.275000
C     -0.038000    0.050000    2.436000
H     -0.754000   -0.174000    3.221000
H      0.761000   -0.686000    2.452000
H      0.402000    1.029000    2.617000
H     -1.881000   -0.053000   -1.104000
H     -0.502000   -0.864000   -1.870000
H     -0.570000    0.890000   -1.840000
C     -5.466300    1.525200   -0.880500
C     -6.126700    2.282900    0.086500
C     -7.464500    2.532700   -0.151000
C     -8.015000    2.008800   -1.319600
Br    -3.637000    1.128000   -0.651000
N     -6.026900    1.041300   -1.985800
N     -7.325400    1.288000   -2.208900
H     -5.609100    2.644800    0.961800
H     -8.064400    3.110100    0.537800
H     -9.054700    2.162500   -1.573200
