22

O      1.225500   -0.000000   -0.000000
C      0.000000   -0.000000   -0.000000
N     -0.713000    0.000000    1.154400
H     -1.712600    0.063700    1.111800
C     -0.806800   -0.008800   -1.275400
C     -0.038900    0.050500    2.435000
H     -0.754300   -0.173300    3.220300
H      0.760300   -0.685200    2.452100
H      0.401600    1.029800    2.616000
H     -1.879900   -0.053500   -1.105800
H     -0.500400   -0.864800   -1.870900
H     -0.569100    0.889100   -1.840600
C      7.144800    0.027500    0.017700
C      7.827000   -0.577000    1.073500
C      9.205900   -0.516800    1.015600
C      9.772000    0.134500   -0.079200
Br     5.259200    0.000700    0.001600
N      7.721400    0.641000   -1.012500
N      9.059800    0.695200   -1.061200
H      7.294500   -1.058700    1.879500
H      9.825400   -0.954900    1.785100
H     10.843600    0.221800   -0.193300
