22

O      1.225500   -0.000000   -0.000000
C      0.000000   -0.000000   -0.000000
N     -0.713000    0.000000    1.154400
H     -1.712600    0.063700    1.111800
C     -0.806800   -0.008800   -1.275400
C     -0.038900    0.050500    2.435000
H     -0.754300   -0.173300    3.220300
H      0.760300   -0.685200    2.452100
H      0.401600    1.029800    2.616000
H     -1.879900   -0.053500   -1.105800
H     -0.500400   -0.864800   -1.870900
H     -0.569100    0.889100   -1.840600
C      6.576200    0.001600    2.531500
C      7.193300   -1.214600    2.823900
C      8.433200   -1.133600    3.427800
C      8.938400    0.140500    3.682000
Br     4.880500    0.001100    1.706200
N      7.091200    1.200800    2.789900
N      8.294600    1.270900    3.376000
H      6.717200   -2.153700    2.586100
H      8.992800   -2.018800    3.694400
H      9.901700    0.283500    4.151700
