22

O      1.225500   -0.000000   -0.000000
C      0.000000   -0.000000   -0.000000
N     -0.713000    0.000000    1.154400
H     -1.712600    0.063700    1.111800
C     -0.806800   -0.008800   -1.275400
C     -0.038900    0.050500    2.435000
H     -0.754300   -0.173300    3.220300
H      0.760300   -0.685200    2.452100
H      0.401600    1.029800    2.616000
H     -1.879900   -0.053500   -1.105800
H     -0.500400   -0.864800   -1.870900
H     -0.569100    0.889100   -1.840600
C      6.056000    3.369300    0.595000
C      6.612300    3.547200    1.861600
C      7.728500    4.358800    1.923000
C      8.182800    4.912700    0.727100
Br     4.529200    2.279100    0.402500
N      6.519000    3.915900   -0.526100
N      7.602500    4.702100   -0.458100
H      6.184100    3.072300    2.731300
H      8.232900    4.559400    2.857400
H      9.050000    5.557600    0.696100
