22

O      1.225500   -0.000000   -0.000000
C      0.000000   -0.000000   -0.000000
N     -0.713000    0.000000    1.154400
H     -1.712600    0.063700    1.111800
C     -0.806800   -0.008800   -1.275400
C     -0.038900    0.050500    2.435000
H     -0.754300   -0.173300    3.220300
H      0.760300   -0.685200    2.452100
H      0.401600    1.029800    2.616000
H     -1.879900   -0.053500   -1.105800
H     -0.500400   -0.864800   -1.870900
H     -0.569100    0.889100   -1.840600
C      1.713400   -0.001500   -5.899300
C      1.769100    1.214700   -6.579900
C      1.867100    1.133700   -7.955500
C      1.900200   -0.140400   -8.520100
Br     1.578700   -0.001000   -4.018200
N      1.747600   -1.200700   -6.474400
N      1.842800   -1.270800   -7.809600
H      1.736500    2.153800   -6.048700
H      1.916500    2.018900   -8.573400
H      1.975900   -0.283400   -9.589100
