22

O      1.225500   -0.000000   -0.000000
C      0.000000   -0.000000   -0.000000
N     -0.713000    0.000000    1.154400
H     -1.712600    0.063700    1.111800
C     -0.806800   -0.008800   -1.275400
C     -0.038900    0.050500    2.435000
H     -0.754300   -0.173300    3.220300
H      0.760300   -0.685200    2.452100
H      0.401600    1.029800    2.616000
H     -1.879900   -0.053500   -1.105800
H     -0.500400   -0.864800   -1.870900
H     -0.569100    0.889100   -1.840600
C      0.168800   -5.736000   -1.010300
C      0.046900   -6.186400   -2.324700
C     -0.214800   -7.533800   -2.480200
C     -0.329700   -8.300600   -1.321700
Br     0.526000   -3.912300   -0.689000
N      0.052300   -6.500000    0.072700
N     -0.201600   -7.806500   -0.086700
H      0.153500   -5.509700   -3.158900
H     -0.326700   -7.980500   -3.457800
H     -0.533500   -9.361600   -1.363700
