22

O      1.225500   -0.000000   -0.000000
C      0.000000   -0.000000   -0.000000
N     -0.713000    0.000000    1.154400
H     -1.712600    0.063700    1.111800
C     -0.806800   -0.008800   -1.275400
C     -0.038900    0.050500    2.435000
H     -0.754300   -0.173300    3.220300
H      0.760300   -0.685200    2.452100
H      0.401600    1.029800    2.616000
H     -1.879900   -0.053500   -1.105800
H     -0.500400   -0.864800   -1.870900
H     -0.569100    0.889100   -1.840600
C     -0.335600    4.943700   -2.856900
C     -0.516300    6.122200   -2.133000
C     -0.895100    7.230100   -2.866200
C     -1.057100    7.062100   -4.240600
Br     0.181700    3.373500   -1.949500
N     -0.500200    4.822200   -4.171500
N     -0.867700    5.901700   -4.875800
H     -0.365200    6.150000   -1.064500
H     -1.060300    8.190100   -2.398600
H     -1.351900    7.882900   -4.879700
