22

O      1.225500   -0.000000   -0.000000
C      0.000000   -0.000000   -0.000000
N     -0.713000    0.000000    1.154400
H     -1.712600    0.063700    1.111800
C     -0.806800   -0.008800   -1.275400
C     -0.038900    0.050500    2.435000
H     -0.754300   -0.173300    3.220300
H      0.760300   -0.685200    2.452100
H      0.401600    1.029800    2.616000
H     -1.879900   -0.053500   -1.105800
H     -0.500400   -0.864800   -1.870900
H     -0.569100    0.889100   -1.840600
C     -2.196400    4.184000    2.413200
C     -2.591600    4.058300    3.744900
C     -3.401600    5.065400    4.232800
C     -3.739600    6.095200    3.356000
Br    -1.089200    2.861600    1.650400
N     -2.540200    5.183900    1.605700
N     -3.326400    6.157200    2.086600
H     -2.274800    3.218500    4.344500
H     -3.761500    5.060100    5.251700
H     -4.369500    6.917600    3.665600
