22

O      1.225500   -0.000000   -0.000000
C      0.000000   -0.000000   -0.000000
N     -0.713000    0.000000    1.154400
H     -1.712600    0.063700    1.111800
C     -0.806800   -0.008800   -1.275400
C     -0.038900    0.050500    2.435000
H     -0.754300   -0.173300    3.220300
H      0.760300   -0.685200    2.452100
H      0.401600    1.029800    2.616000
H     -1.879900   -0.053500   -1.105800
H     -0.500400   -0.864800   -1.870900
H     -0.569100    0.889100   -1.840600
C     -2.981300   -4.101200    0.722400
C     -3.466000   -4.785400   -0.392200
C     -4.457100   -5.715800   -0.146500
C     -4.869500   -5.876600    1.175400
Br    -1.626400   -2.809200    0.494900
N     -3.400900   -4.282500    1.971900
N     -4.362900   -5.187100    2.201900
H     -3.079200   -4.587900   -1.380400
H     -4.898300   -6.298000   -0.942900
H     -5.640100   -6.585400    1.445100
