22

H     -0.569100    0.889100   -1.840600
C     -0.806800   -0.008800   -1.275400
H     -0.500400   -0.864800   -1.870900
H     -1.879900   -0.053500   -1.105800
C      0.000000   -0.000000   -0.000000
O      1.225500   -0.000000   -0.000000
N     -0.713000    0.000000    1.154400
H     -1.712600    0.063700    1.111800
C     -0.038900    0.050500    2.435000
H      0.401600    1.029800    2.616000
H      0.760300   -0.685200    2.452100
H     -0.754300   -0.173300    3.220300
C     -3.327900    2.429200   -2.899300
C     -3.853500    3.641200   -2.451800
C     -4.924200    4.137600   -3.169800
C     -5.367800    3.386800   -4.257400
Br    -1.864000    1.665600   -1.987900
N     -3.779400    1.740300   -3.944100
N     -4.818600    2.228700   -4.635500
H     -3.437000    4.147900   -1.594500
H     -5.402200    5.069500   -2.903500
H     -6.200200    3.711000   -4.866500
