22

O      1.225500   -0.000000   -0.000000
C      0.000000   -0.000000   -0.000000
N     -0.713000    0.000000    1.154400
H     -1.712600    0.063700    1.111800
C     -0.806800   -0.008800   -1.275400
C     -0.038900    0.050500    2.435000
H     -0.754300   -0.173300    3.220300
H      0.760300   -0.685200    2.452100
H      0.401600    1.029800    2.616000
H     -1.879900   -0.053500   -1.105800
H     -0.500400   -0.864800   -1.870900
H     -0.569100    0.889100   -1.840600
C      6.213200   -1.186700    1.418100
C      6.853700   -2.271000    0.818400
C      8.141500   -2.525900    1.248600
C      8.666800   -1.684000    2.227700
Br     4.451900   -0.754100    0.901100
N      6.748500   -0.404400    2.351600
N      7.998500   -0.658300    2.763600
H      6.358800   -2.865000    0.065200
H      8.722500   -3.343200    0.845900
H      9.667300   -1.821000    2.613700
