22

O      1.225500   -0.000000   -0.000000
C      0.000000   -0.000000   -0.000000
N     -0.713000    0.000000    1.154400
H     -1.712600    0.063700    1.111800
C     -0.806800   -0.008800   -1.275400
C     -0.038900    0.050500    2.435000
H     -0.754300   -0.173300    3.220300
H      0.760300   -0.685200    2.452100
H      0.401600    1.029800    2.616000
H     -1.879900   -0.053500   -1.105800
H     -0.500400   -0.864800   -1.870900
H     -0.569100    0.889100   -1.840600
C      6.034500    0.000200   -2.273700
C      6.651400    1.216600   -2.565600
C      7.891700    1.136100   -3.168600
C      8.397600   -0.137900   -3.422400
Br     4.338100    0.000100   -1.449800
N      6.550000   -1.198900   -2.531700
N      7.754000   -1.268500   -3.116900
H      6.174800    2.155600   -2.328200
H      8.451300    2.021400   -3.434800
H      9.361300   -0.280500   -3.891300
