22

O      1.225500   -0.000000   -0.000000
C      0.000000   -0.000000   -0.000000
N     -0.713000    0.000000    1.154400
H     -1.712600    0.063700    1.111800
C     -0.806800   -0.008800   -1.275400
C     -0.038900    0.050500    2.435000
H     -0.754300   -0.173300    3.220300
H      0.760300   -0.685200    2.452100
H      0.401600    1.029800    2.616000
H     -1.879900   -0.053500   -1.105800
H     -0.500400   -0.864800   -1.870900
H     -0.569100    0.889100   -1.840600
C      4.965500    3.276300   -1.890900
C      5.444800    4.305200   -1.080300
C      6.403800    5.123300   -1.645500
C      6.792600    4.842600   -2.954500
Br     3.653700    2.102800   -1.213600
N      5.361900    3.039400   -3.138600
N      6.292700    3.837700   -3.679900
H      5.078000    4.440300   -0.074100
H      6.838100    5.948600   -1.099700
H      7.537500    5.438600   -3.463200
