22

O      1.225500   -0.000000   -0.000000
C      0.000000   -0.000000   -0.000000
N     -0.713000    0.000000    1.154400
H     -1.712600    0.063700    1.111800
C     -0.806800   -0.008800   -1.275400
C     -0.038900    0.050500    2.435000
H     -0.754300   -0.173300    3.220300
H      0.760300   -0.685200    2.452100
H      0.401600    1.029800    2.616000
H     -1.879900   -0.053500   -1.105800
H     -0.500400   -0.864800   -1.870900
H     -0.569100    0.889100   -1.840600
C      4.250200   -1.494700    4.112700
C      4.638800   -2.829600    4.224500
C      5.410600   -3.144200    5.326200
C      5.720800   -2.108600    6.206300
Br     3.194100   -0.961000    2.644200
N      4.566600   -0.532400    4.975100
N      5.315800   -0.845800    6.041500
H      4.345600   -3.560300    3.486100
H      5.762300   -4.150600    5.503400
H      6.320200   -2.278000    7.090000
