22

O      1.225500   -0.000000   -0.000000
C      0.000000   -0.000000   -0.000000
N     -0.713000    0.000000    1.154400
H     -1.712600    0.063700    1.111800
C     -0.806800   -0.008800   -1.275400
C     -0.038900    0.050500    2.435000
H     -0.754300   -0.173300    3.220300
H      0.760300   -0.685200    2.452100
H      0.401600    1.029800    2.616000
H     -1.879900   -0.053500   -1.105800
H     -0.500400   -0.864800   -1.870900
H     -0.569100    0.889100   -1.840600
C      2.120200    3.369700   -4.017600
C      2.234700    4.734100   -3.751500
C      2.452000    5.547500   -4.846700
C      2.534300    4.931200   -6.094400
Br     1.822400    2.173000   -2.590800
N      2.204600    2.817400   -5.225100
N      2.415600    3.613500   -6.282700
H      2.155800    5.115100   -2.744600
H      2.554800    6.618500   -4.746100
H      2.702800    5.502000   -6.997000
