22

O      1.225500   -0.000000   -0.000000
C      0.000000   -0.000000   -0.000000
N     -0.713000    0.000000    1.154400
H     -1.712600    0.063700    1.111800
C     -0.806800   -0.008800   -1.275400
C     -0.038900    0.050500    2.435000
H     -0.754300   -0.173300    3.220300
H      0.760300   -0.685200    2.452100
H      0.401600    1.029800    2.616000
H     -1.879900   -0.053500   -1.105800
H     -0.500400   -0.864800   -1.870900
H     -0.569100    0.889100   -1.840600
C      6.352200    4.277600    0.755000
C      6.872100    4.501600    2.029800
C      7.913600    5.405900    2.107600
C      8.336500    5.997600    0.918400
Br     4.927600    3.060600    0.540200
N      6.783400    4.862800   -0.359300
N      7.794300    5.739000   -0.275400
H      6.473200    3.991000    2.893200
H      8.384800    5.648300    3.049300
H      9.145600    6.714600    0.900000
