22

O      1.225500   -0.000000   -0.000000
C      0.000000   -0.000000   -0.000000
N     -0.713000    0.000000    1.154400
H     -1.712600    0.063700    1.111800
C     -0.806800   -0.008800   -1.275400
C     -0.038900    0.050500    2.435000
H     -0.754300   -0.173300    3.220300
H      0.760300   -0.685200    2.452100
H      0.401600    1.029800    2.616000
H     -1.879900   -0.053500   -1.105800
H     -0.500400   -0.864800   -1.870900
H     -0.569100    0.889100   -1.840600
C      5.936900   -2.434300    1.862800
C      6.208600   -1.865500    3.107000
C      6.744200   -2.714600    4.056000
C      6.957500   -4.040000    3.680200
Br     5.203800   -1.359900    0.497200
N      6.154600   -3.706700    1.540900
N      6.674600   -4.524200    2.467200
H      6.006500   -0.822900    3.300500
H      6.989700   -2.370700    5.050500
H      7.373300   -4.762900    4.368300
