22

O      1.225500   -0.000000   -0.000000
C      0.000000   -0.000000   -0.000000
N     -0.713000    0.000000    1.154400
H     -1.712600    0.063700    1.111800
C     -0.806800   -0.008800   -1.275400
C     -0.038900    0.050500    2.435000
H     -0.754300   -0.173300    3.220300
H      0.760300   -0.685200    2.452100
H      0.401600    1.029800    2.616000
H     -1.879900   -0.053500   -1.105800
H     -0.500400   -0.864800   -1.870900
H     -0.569100    0.889100   -1.840600
C      6.202500   -2.870900    1.022700
C      6.803600   -2.887700    2.281200
C      7.518100   -4.027700    2.594700
C      7.566700   -5.036200    1.633500
Br     5.203800   -1.359900    0.497200
N      6.271500   -3.855100    0.130200
N      6.966600   -4.958000    0.442000
H      6.706700   -2.052000    2.957500
H      8.020700   -4.138500    3.544900
H      8.106200   -5.957000    1.806800
