22

H     -1.879900   -0.053500   -1.105800
C     -0.806800   -0.008800   -1.275400
H     -0.569100    0.889100   -1.840600
H     -0.500400   -0.864800   -1.870900
C      0.000000   -0.000000   -0.000000
O      1.225500   -0.000000   -0.000000
N     -0.713000    0.000000    1.154400
H     -1.712600    0.063700    1.111800
C     -0.038900    0.050500    2.435000
H      0.401600    1.029800    2.616000
H      0.760300   -0.685200    2.452100
H     -0.754300   -0.173300    3.220300
C     -5.078900   -0.568400   -1.560300
C     -5.739100    0.515200   -2.139400
C     -7.076800    0.324600   -2.427000
C     -7.627500   -0.917100   -2.113500
Br    -3.249800   -0.411200   -1.128700
N     -5.639700   -1.740800   -1.275200
N     -6.938100   -1.917700   -1.557300
H     -5.221400    1.440000   -2.344100
H     -7.676600    1.103000   -2.876600
H     -8.667100   -1.140200   -2.309100
