22

H     -0.500400   -0.864800   -1.870900
H     -0.569100    0.889100   -1.840600
H     -1.879900   -0.053500   -1.105800
C     -0.806800   -0.008800   -1.275400
C      0.000000   -0.000000   -0.000000
O      1.225500   -0.000000   -0.000000
N     -0.713000    0.000000    1.154400
H     -1.712600    0.063700    1.111800
C     -0.038900    0.050500    2.435000
H     -0.754300   -0.173300    3.220300
H      0.760300   -0.685200    2.452100
H      0.401600    1.029800    2.616000
C     -1.990500   -0.001400   -3.175400
C     -2.475900    1.214800   -3.655800
C     -3.466700    1.133700   -4.615000
C     -3.878100   -0.140400   -5.003000
Br    -0.636000   -0.000800   -1.863100
N     -2.409200   -1.200700   -3.571000
N     -3.370900   -1.270800   -4.502100
H     -2.089800    2.153900   -3.289500
H     -3.908300    2.018800   -5.050200
H     -4.648400   -0.283500   -5.748100
