22

O      1.224000    0.000000    0.000000
C      0.000000    0.000000    0.000000
N     -0.718000    0.000000    1.154000
H     -1.717000    0.061000    1.108000
C     -0.809000   -0.010000   -1.276000
C     -0.049000    0.046000    2.436000
H     -0.777000   -0.133000    3.221000
H      0.720000   -0.720000    2.476000
H      0.429000    1.010000    2.602000
H     -1.882000   -0.038000   -1.106000
H     -0.515000   -0.876000   -1.863000
H     -0.559000    0.879000   -1.850000
C      3.564400   -2.085100    2.184200
C      3.535000   -0.693900    2.088400
C      4.045200   -0.002500    3.170000
C      4.533000   -0.754900    4.237400
Br     2.891400   -3.122600    0.760400
N      4.039100   -2.769200    3.221800
N      4.532400   -2.091000    4.267500
H      3.134300   -0.202700    1.214600
H      4.067700    1.077700    3.193100
H      4.947500   -0.284500    5.118200
