22

H      0.760300   -0.685200    2.452100
H      0.401600    1.029800    2.616000
C     -0.038900    0.050500    2.435000
H     -0.754300   -0.173300    3.220300
N     -0.713000    0.000000    1.154400
H     -1.712600    0.063700    1.111800
O      1.225500   -0.000000   -0.000000
C      0.000000   -0.000000   -0.000000
C     -0.806800   -0.008800   -1.275400
H     -1.879900   -0.053500   -1.105800
H     -0.500400   -0.864800   -1.870900
H     -0.569100    0.889100   -1.840600
C      2.047600    0.001500    4.850200
C      2.162200   -1.214700    5.523500
C      2.378600   -1.133600    6.885500
C      2.459900    0.140500    7.445200
Br     1.751100    0.000900    2.987800
N      2.131100    1.200800    5.420200
N      2.341100    1.270900    6.742200
H      2.084100   -2.153800    4.997100
H      2.481300   -2.018700    7.496900
H      2.627500    0.283600    8.503600
