22

H     -1.879900   -0.053500   -1.105800
C      0.000000   -0.000000   -0.000000
O      1.225500   -0.000000   -0.000000
C     -0.806800   -0.008800   -1.275400
N     -0.713000    0.000000    1.154400
H     -1.712600    0.063700    1.111800
H     -0.569100    0.889100   -1.840600
H     -0.500400   -0.864800   -1.870900
C     -0.038900    0.050500    2.435000
H      0.401600    1.029800    2.616000
H      0.760300   -0.685200    2.452100
H     -0.754300   -0.173300    3.220300
C     -3.245300   -2.020900   -0.357600
C     -3.864900   -2.090800   -1.605200
C     -5.124200   -2.658500   -1.623900
C     -5.644500   -3.100000   -0.408300
Br    -1.523600   -1.263100   -0.223400
N     -3.775000   -2.454100    0.783500
N     -4.997200   -3.003700    0.756900
H     -3.376200   -1.719000   -2.493000
H     -5.687400   -2.758700   -2.540700
H     -6.623300   -3.554600   -0.343900
