22

O      1.224000    0.000000    0.000000
C      0.000000    0.000000    0.000000
N     -0.718000    0.000000    1.154000
H     -1.717000    0.061000    1.108000
C     -0.809000   -0.010000   -1.276000
C     -0.049000    0.046000    2.436000
H     -0.777000   -0.133000    3.221000
H      0.720000   -0.720000    2.476000
H      0.429000    1.010000    2.602000
H     -1.882000   -0.038000   -1.106000
H     -0.515000   -0.876000   -1.863000
H     -0.559000    0.879000   -1.850000
C      3.326700   -2.325400    2.984600
C      2.724400   -1.094600    3.244700
C      3.556400   -0.105400    3.732200
C      4.899500   -0.431800    3.913700
Br     2.277800   -3.743100    2.316200
N      4.615100   -2.599700    3.170900
N      5.415800   -1.634600    3.644200
H      1.670300   -0.940700    3.070100
H      3.186500    0.882900    3.965100
H      5.610700    0.289600    4.291400
