22

O      1.225000    0.000000    0.000000
C      0.000000    0.000000    0.000000
N     -0.713000    0.000000    1.155000
H     -1.713000    0.064000    1.113000
C     -0.808000   -0.008000   -1.275000
C     -0.038000    0.050000    2.436000
H     -0.754000   -0.174000    3.221000
H      0.761000   -0.686000    2.452000
H      0.402000    1.029000    2.617000
H     -1.881000   -0.053000   -1.104000
H     -0.502000   -0.864000   -1.870000
H     -0.570000    0.890000   -1.840000
C      7.483300    1.897200    2.261000
C      8.101000    1.152700    3.265800
C      9.341200    1.602400    3.675800
C      9.846200    2.742200    3.051900
Br     5.787000    1.367000    1.630000
N      7.998000    2.982200    1.688400
N      9.201800    3.412100    2.091800
H      7.625000    0.280300    3.687100
H      9.901300    1.095200    4.448300
H     10.809700    3.153300    3.319400
