22

O      1.225000    0.000000    0.000000
C      0.000000    0.000000    0.000000
N     -0.713000    0.000000    1.155000
H     -1.713000    0.064000    1.113000
C     -0.808000   -0.008000   -1.275000
C     -0.038000    0.050000    2.436000
H     -0.754000   -0.174000    3.221000
H      0.761000   -0.686000    2.452000
H      0.402000    1.029000    2.617000
H     -1.881000   -0.053000   -1.104000
H     -0.502000   -0.864000   -1.870000
H     -0.570000    0.890000   -1.840000
C      6.875000   -3.932900   -0.693600
C      7.431800   -4.109900   -1.960100
C      8.548200   -4.921300   -2.021700
C      9.002000   -5.476000   -0.826000
Br     5.348000   -2.843000   -0.501000
N      7.337600   -4.480300    0.427300
N      8.421200   -5.266300    0.359100
H      7.004000   -3.634400   -2.829600
H      9.053000   -5.121100   -2.956000
H      9.869200   -6.120800   -0.795100
