22

O      1.225000    0.000000    0.000000
C      0.000000    0.000000    0.000000
N     -0.713000    0.000000    1.155000
H     -1.713000    0.064000    1.113000
C     -0.808000   -0.008000   -1.275000
C     -0.038000    0.050000    2.436000
H     -0.754000   -0.174000    3.221000
H      0.761000   -0.686000    2.452000
H      0.402000    1.029000    2.617000
H     -1.881000   -0.053000   -1.104000
H     -0.502000   -0.864000   -1.870000
H     -0.570000    0.890000   -1.840000
C      1.194100   -4.448000   -5.300600
C      1.189600   -3.954800   -6.605300
C      1.166500   -4.902800   -7.609800
C      1.150200   -6.242400   -7.224400
Br     1.225000   -3.236000   -3.856000
N      1.178000   -5.736900   -4.971300
N      1.155600   -6.650600   -5.951900
H      1.203500   -2.893300   -6.801000
H      1.161200   -4.622900   -8.653600
H      1.131800   -7.040400   -7.953600
