22

O      1.225000    0.000000    0.000000
C      0.000000    0.000000    0.000000
N     -0.713000    0.000000    1.155000
H     -1.713000    0.064000    1.113000
C     -0.808000   -0.008000   -1.275000
C     -0.038000    0.050000    2.436000
H     -0.754000   -0.174000    3.221000
H      0.761000   -0.686000    2.452000
H      0.402000    1.029000    2.617000
H     -1.881000   -0.053000   -1.104000
H     -0.502000   -0.864000   -1.870000
H     -0.570000    0.890000   -1.840000
C      0.591400    6.785400    1.196400
C      0.527800    7.243700    2.512200
C      0.385000    8.608600    2.670700
C      0.319400    9.383100    1.513600
Br     0.786000    4.938000    0.871000
N      0.525100    7.557300    0.114800
N      0.386600    8.880600    0.277100
H      0.588000    6.559800    3.345200
H      0.326100    9.062600    3.649600
H      0.208000   10.457600    1.557900
