22

O      1.225000    0.000000    0.000000
C      0.000000    0.000000    0.000000
N     -0.713000    0.000000    1.155000
H     -1.713000    0.064000    1.113000
C     -0.808000   -0.008000   -1.275000
C     -0.038000    0.050000    2.436000
H     -0.754000   -0.174000    3.221000
H      0.761000   -0.686000    2.452000
H      0.402000    1.029000    2.617000
H     -1.881000   -0.053000   -1.104000
H     -0.502000   -0.864000   -1.870000
H     -0.570000    0.890000   -1.840000
C     -1.170000    2.220100   -6.100600
C     -1.405900    3.582200   -6.286800
C     -1.898600    3.946700   -7.524900
C     -2.108600    2.929100   -8.454200
Br    -0.497000    1.618000   -4.445000
N     -1.383300    1.276300   -7.013800
N     -1.861400    1.638200   -8.212600
H     -1.210000    4.295400   -5.500600
H     -2.114200    4.977200   -7.768300
H     -2.492000    3.137000   -9.443500
