22

O      1.225000    0.000000    0.000000
C      0.000000    0.000000    0.000000
N     -0.713000    0.000000    1.155000
H     -1.713000    0.064000    1.113000
C     -0.808000   -0.008000   -1.275000
C     -0.038000    0.050000    2.436000
H     -0.754000   -0.174000    3.221000
H      0.761000   -0.686000    2.452000
H      0.402000    1.029000    2.617000
H     -1.881000   -0.053000   -1.104000
H     -0.502000   -0.864000   -1.870000
H     -0.570000    0.890000   -1.840000
C     -2.768800   -4.893400   -2.825500
C     -3.163600   -4.767300   -4.157300
C     -3.973400   -5.774400   -4.645700
C     -4.311500   -6.804500   -3.769300
Br    -1.662000   -3.571000   -2.062000
N     -3.112700   -5.893500   -2.018400
N     -3.898700   -6.866800   -2.499800
H     -2.846700   -3.927300   -4.756500
H     -4.332900   -5.768900   -5.664700
H     -4.941100   -7.626800   -4.079300
