22

O      1.225000    0.000000    0.000000
C      0.000000    0.000000    0.000000
N     -0.713000    0.000000    1.155000
H     -1.713000    0.064000    1.113000
C     -0.808000   -0.008000   -1.275000
C     -0.038000    0.050000    2.436000
H     -0.754000   -0.174000    3.221000
H      0.761000   -0.686000    2.452000
H      0.402000    1.029000    2.617000
H     -1.881000   -0.053000   -1.104000
H     -0.502000   -0.864000   -1.870000
H     -0.570000    0.890000   -1.840000
C     -4.095400   -2.843700    3.389400
C     -4.621000   -4.055500    2.941400
C     -5.692200   -4.552000    3.658600
C     -6.136300   -3.801300    4.746200
Br    -2.631000   -2.080000    2.479000
N     -4.547400   -2.154900    4.434100
N     -5.587100   -2.643400    5.124900
H     -4.204100   -4.562000    2.084100
H     -6.170100   -5.483700    3.391900
H     -6.969000   -4.125600    5.354700
