22

O      1.225500   -0.000000   -0.000000
C      0.000000   -0.000000   -0.000000
N     -0.713000    0.000000    1.154400
H     -1.712600    0.063700    1.111800
C     -0.806800   -0.008800   -1.275400
C     -0.038900    0.050500    2.435000
H     -0.754300   -0.173300    3.220300
H      0.760300   -0.685200    2.452100
H      0.401600    1.029800    2.616000
H     -1.879900   -0.053500   -1.105800
H     -0.500400   -0.864800   -1.870900
H     -0.569100    0.889100   -1.840600
C     -1.751500   -4.893500   -2.997100
C     -3.143300   -4.945200   -2.922200
C     -3.693400   -6.201200   -2.753900
C     -2.813300   -7.279500   -2.676500
Br    -0.901000   -3.226000   -3.226500
N     -0.942800   -5.947100   -2.919000
N     -1.484400   -7.162300   -2.755700
H     -3.740000   -4.048500   -2.993200
H     -4.761800   -6.347600   -2.684400
H     -3.169400   -8.291800   -2.545200
