22

O      1.225500   -0.000000   -0.000000
C      0.000000   -0.000000   -0.000000
N     -0.713000    0.000000    1.154400
H     -1.712600    0.063700    1.111800
C     -0.806800   -0.008800   -1.275400
C     -0.038900    0.050500    2.435000
H     -0.754300   -0.173300    3.220300
H      0.760300   -0.685200    2.452100
H      0.401600    1.029800    2.616000
H     -1.879900   -0.053500   -1.105800
H     -0.500400   -0.864800   -1.870900
H     -0.569100    0.889100   -1.840600
C     -2.741100    1.229200   -3.610200
C     -2.815700    1.226800   -5.003000
C     -3.362900    0.095800   -5.577200
C     -3.781200   -0.918900   -4.717700
Br    -2.010000    2.727000   -2.727800
N     -3.151800    0.239400   -2.821800
N     -3.681600   -0.854700   -3.386600
H     -2.462600    2.066300   -5.582600
H     -3.464900   -0.003600   -6.648400
H     -4.219000   -1.833400   -5.093200
