22

O      1.225500   -0.000000   -0.000000
C      0.000000   -0.000000   -0.000000
N     -0.713000    0.000000    1.154400
H     -1.712600    0.063700    1.111800
C     -0.806800   -0.008800   -1.275400
C     -0.038900    0.050500    2.435000
H     -0.754300   -0.173300    3.220300
H      0.760300   -0.685200    2.452100
H      0.401600    1.029800    2.616000
H     -1.879900   -0.053500   -1.105800
H     -0.500400   -0.864800   -1.870900
H     -0.569100    0.889100   -1.840600
C     -2.171400   -4.667500    3.248900
C     -2.585900   -4.723500    4.579500
C     -3.029600   -5.954300    5.023200
C     -3.019100   -7.005600    4.107700
Br    -1.547500   -3.033000    2.544800
N     -2.176000   -5.694900    2.403700
N     -2.608000   -6.885800    2.841800
H     -2.555500   -3.848800    5.211200
H     -3.372000   -6.101700    6.037500
H     -3.351500   -7.997200    4.381700
