22

O      1.225500   -0.000000   -0.000000
C      0.000000   -0.000000   -0.000000
N     -0.713000    0.000000    1.154400
H     -1.712600    0.063700    1.111800
C     -0.806800   -0.008800   -1.275400
C     -0.038900    0.050500    2.435000
H     -0.754300   -0.173300    3.220300
H      0.760300   -0.685200    2.452100
H      0.401600    1.029800    2.616000
H     -1.879900   -0.053500   -1.105800
H     -0.500400   -0.864800   -1.870900
H     -0.569100    0.889100   -1.840600
C      2.923200   -5.318200   -1.469800
C      1.550900   -5.308900   -1.220700
C      1.022800   -6.475100   -0.701400
C      1.903600   -7.532800   -0.480500
Br     3.742800   -3.775000   -2.179300
N      3.733100   -6.349600   -1.245400
N      3.213000   -7.477500   -0.741400
H      0.951800   -4.435000   -1.426900
H     -0.029400   -6.568900   -0.473900
H      1.564000   -8.476400   -0.076500
