22

O      1.225500   -0.000000   -0.000000
C      0.000000   -0.000000   -0.000000
N     -0.713000    0.000000    1.154400
H     -1.712600    0.063700    1.111800
C     -0.806800   -0.008800   -1.275400
C     -0.038900    0.050500    2.435000
H     -0.754300   -0.173300    3.220300
H      0.760300   -0.685200    2.452100
H      0.401600    1.029800    2.616000
H     -1.879900   -0.053500   -1.105800
H     -0.500400   -0.864800   -1.870900
H     -0.569100    0.889100   -1.840600
C      3.570300    5.068400   -1.943400
C      3.838400    6.436100   -1.997200
C      4.395100    6.897200   -3.174400
C      4.630800    5.960800   -4.179900
Br     2.809700    4.337800   -0.380000
N      3.809800    4.204000   -2.926100
N      4.350100    4.659300   -4.065200
H      3.618200    7.081600   -1.160500
H      4.639800    7.940300   -3.315500
H      5.063900    6.246600   -5.128400
