22

O      1.225500   -0.000000   -0.000000
C      0.000000   -0.000000   -0.000000
N     -0.713000    0.000000    1.154400
H     -1.712600    0.063700    1.111800
C     -0.806800   -0.008800   -1.275400
C     -0.038900    0.050500    2.435000
H     -0.754300   -0.173300    3.220300
H      0.760300   -0.685200    2.452100
H      0.401600    1.029800    2.616000
H     -1.879900   -0.053500   -1.105800
H     -0.500400   -0.864800   -1.870900
H     -0.569100    0.889100   -1.840600
C      1.366800    1.801300   -5.534400
C      0.204400    1.844000   -6.304100
C      0.387200    1.914900   -7.671600
C      1.699700    1.936500   -8.140800
Br     1.226700    1.703700   -3.656200
N      2.605400    1.823900   -6.019600
N      2.774300    1.892800   -7.347500
H     -0.771500    1.822100   -5.843500
H     -0.449600    1.952400   -8.354300
H      1.921600    1.991200   -9.197600
