22

O      1.225500   -0.000000   -0.000000
C      0.000000   -0.000000   -0.000000
N     -0.713000    0.000000    1.154400
H     -1.712600    0.063700    1.111800
C     -0.806800   -0.008800   -1.275400
C     -0.038900    0.050500    2.435000
H     -0.754300   -0.173300    3.220300
H      0.760300   -0.685200    2.452100
H      0.401600    1.029800    2.616000
H     -1.879900   -0.053500   -1.105800
H     -0.500400   -0.864800   -1.870900
H     -0.569100    0.889100   -1.840600
C      0.759100   -3.305300    0.449500
C      0.328200   -2.137200    1.078200
C     -0.667400   -2.291400    2.023500
C     -1.137000   -3.583800    2.252400
Br     2.115100   -3.203700   -0.857200
N      0.285600   -4.524100    0.695300
N     -0.680300   -4.665300    1.613800
H      0.757200   -1.178400    0.829600
H     -1.069400   -1.447800    2.566300
H     -1.914600   -3.782900    2.976600
