22

O      1.225500   -0.000000   -0.000000
C      0.000000   -0.000000   -0.000000
N     -0.713000    0.000000    1.154400
H     -1.712600    0.063700    1.111800
C     -0.806800   -0.008800   -1.275400
C     -0.038900    0.050500    2.435000
H     -0.754300   -0.173300    3.220300
H      0.760300   -0.685200    2.452100
H      0.401600    1.029800    2.616000
H     -1.879900   -0.053500   -1.105800
H     -0.500400   -0.864800   -1.870900
H     -0.569100    0.889100   -1.840600
C      0.618600    6.626500    1.028400
C     -0.108600    7.262700    2.034300
C     -0.518400    8.553100    1.760100
C     -0.168600    9.085100    0.520000
Br     1.225000    4.862000    1.303100
N      0.933800    7.168100   -0.145200
N      0.532500    8.420700   -0.403600
H     -0.329400    6.762700    2.965100
H     -1.087200    9.131200    2.474300
H     -0.453600   10.088100    0.234200
