22

O      1.225500   -0.000000   -0.000000
C      0.000000   -0.000000   -0.000000
N     -0.713000    0.000000    1.154400
H     -1.712600    0.063700    1.111800
C     -0.806800   -0.008800   -1.275400
C     -0.038900    0.050500    2.435000
H     -0.754300   -0.173300    3.220300
H      0.760300   -0.685200    2.452100
H      0.401600    1.029800    2.616000
H     -1.879900   -0.053500   -1.105800
H     -0.500400   -0.864800   -1.870900
H     -0.569100    0.889100   -1.840600
C      1.771800    2.487300    6.391600
C      0.596900    2.613100    7.132700
C      0.756800    2.882900    8.478100
C      2.061100    3.001300    8.955800
Br     1.663200    2.119000    4.545200
N      3.001900    2.607200    6.884000
N      3.148600    2.869100    8.190400
H     -0.371000    2.503300    6.667800
H     -0.091200    2.998500    9.137900
H      2.265300    3.211500    9.996500
