22

O      1.225500   -0.000000   -0.000000
C      0.000000   -0.000000   -0.000000
N     -0.713000    0.000000    1.154400
H     -1.712600    0.063700    1.111800
C     -0.806800   -0.008800   -1.275400
C     -0.038900    0.050500    2.435000
H     -0.754300   -0.173300    3.220300
H      0.760300   -0.685200    2.452100
H      0.401600    1.029800    2.616000
H     -1.879900   -0.053500   -1.105800
H     -0.500400   -0.864800   -1.870900
H     -0.569100    0.889100   -1.840600
C      2.149300    1.877800   -6.143400
C      3.331300    1.566900   -6.815500
C      3.341900    1.827700   -8.172000
C      2.183900    2.369300   -8.727900
Br     2.031600    1.559700   -4.288200
N      1.062100    2.394900   -6.709600
N      1.080400    2.645100   -8.026400
H      4.177600    1.148300   -6.292300
H      4.209800    1.622200   -8.782200
H      2.117100    2.600100   -9.782100
