22

O      1.225500   -0.000000   -0.000000
C      0.000000   -0.000000   -0.000000
N     -0.713000    0.000000    1.154400
H     -1.712600    0.063700    1.111800
C     -0.806800   -0.008800   -1.275400
C     -0.038900    0.050500    2.435000
H     -0.754300   -0.173300    3.220300
H      0.760300   -0.685200    2.452100
H      0.401600    1.029800    2.616000
H     -1.879900   -0.053500   -1.105800
H     -0.500400   -0.864800   -1.870900
H     -0.569100    0.889100   -1.840600
C      1.223900    6.203800    1.420200
C      0.007300    6.782300    1.781700
C      0.087400    7.943100    2.526300
C      1.361100    8.415500    2.838900
Br     1.224600    4.616100    0.402500
N      2.422800    6.685300    1.738000
N      2.492000    7.812100    2.460700
H     -0.931500    6.337000    1.489100
H     -0.798200    8.467600    2.855800
H      1.503400    9.317300    3.418000
