22

O      1.225500   -0.000000   -0.000000
C      0.000000   -0.000000   -0.000000
N     -0.713000    0.000000    1.154400
H     -1.712600    0.063700    1.111800
C     -0.806800   -0.008800   -1.275400
C     -0.038900    0.050500    2.435000
H     -0.754300   -0.173300    3.220300
H      0.760300   -0.685200    2.452100
H      0.401600    1.029800    2.616000
H     -1.879900   -0.053500   -1.105800
H     -0.500400   -0.864800   -1.870900
H     -0.569100    0.889100   -1.840600
C     -0.046500   -6.151900    0.858200
C      0.390900   -7.476300    0.872700
C     -0.599100   -8.439700    0.885000
C     -1.921200   -7.997900    0.881600
Br     1.225900   -4.760000    0.840700
N     -1.320400   -5.768300    0.855400
N     -2.275000   -6.709300    0.867300
H      1.443200   -7.716800    0.874100
H     -0.363700   -9.494400    0.896700
H     -2.749600   -8.692600    0.890500
