22

O      1.225500   -0.000000   -0.000000
C      0.000000   -0.000000   -0.000000
N     -0.713000    0.000000    1.154400
H     -1.712600    0.063700    1.111800
C     -0.806800   -0.008800   -1.275400
C     -0.038900    0.050500    2.435000
H     -0.754300   -0.173300    3.220300
H      0.760300   -0.685200    2.452100
H      0.401600    1.029800    2.616000
H     -1.879900   -0.053500   -1.105800
H     -0.500400   -0.864800   -1.870900
H     -0.569100    0.889100   -1.840600
C      3.788600   -6.178300    0.772100
C      3.835300   -6.850500    1.993300
C      3.867300   -8.229800    1.923200
C      3.850000   -8.806000    0.654000
Br     3.742100   -4.293000    0.757700
N      3.773400   -6.764300   -0.422200
N      3.804700   -8.103100   -0.481700
H      3.845200   -6.310600    2.927900
H      3.904400   -8.842000    2.812900
H      3.873000   -9.878500    0.519500
