22

O      1.225500   -0.000000   -0.000000
C      0.000000   -0.000000   -0.000000
N     -0.713000    0.000000    1.154400
H     -1.712600    0.063700    1.111800
C     -0.806800   -0.008800   -1.275400
C     -0.038900    0.050500    2.435000
H     -0.754300   -0.173300    3.220300
H      0.760300   -0.685200    2.452100
H      0.401600    1.029800    2.616000
H     -1.879900   -0.053500   -1.105800
H     -0.500400   -0.864800   -1.870900
H     -0.569100    0.889100   -1.840600
C      1.485000   -4.588400   -0.408400
C      0.719800   -3.570700    0.161100
C      0.020500   -3.907500    1.303900
C      0.147600   -5.215500    1.769000
Br     2.478000   -4.231800   -1.971500
N      1.581500   -5.827800    0.065600
N      0.900000   -6.146600    1.174900
H      0.686900   -2.584900   -0.277200
H     -0.601100   -3.190100    1.820300
H     -0.369100   -5.552700    2.656900
