22

O      1.225500   -0.000000   -0.000000
C      0.000000   -0.000000   -0.000000
N     -0.713000    0.000000    1.154400
H     -1.712600    0.063700    1.111800
C     -0.806800   -0.008800   -1.275400
C     -0.038900    0.050500    2.435000
H     -0.754300   -0.173300    3.220300
H      0.760300   -0.685200    2.452100
H      0.401600    1.029800    2.616000
H     -1.879900   -0.053500   -1.105800
H     -0.500400   -0.864800   -1.870900
H     -0.569100    0.889100   -1.840600
C     -0.160100   -5.951700   -0.422000
C      0.787800   -6.862200    0.044900
C      0.338400   -7.778900    0.975500
C     -1.002000   -7.703900    1.351100
Br     0.351700   -4.658000   -1.695200
N     -1.433600   -5.911200   -0.039000
N     -1.861800   -6.804100    0.864300
H      1.807000   -6.838300   -0.309800
H      0.994900   -8.525900    1.398300
H     -1.425800   -8.387200    2.073800
