22

O      1.225500   -0.000000   -0.000000
C      0.000000   -0.000000   -0.000000
N     -0.713000    0.000000    1.154400
H     -1.712600    0.063700    1.111800
C     -0.806800   -0.008800   -1.275400
C     -0.038900    0.050500    2.435000
H     -0.754300   -0.173300    3.220300
H      0.760300   -0.685200    2.452100
H      0.401600    1.029800    2.616000
H     -1.879900   -0.053500   -1.105800
H     -0.500400   -0.864800   -1.870900
H     -0.569100    0.889100   -1.840600
C      5.944800    0.000800    0.032400
C      6.627600   -1.215500    0.036800
C      8.006400   -1.134700    0.060100
C      8.571900    0.139400    0.076800
Br     4.059200    0.000500    0.001200
N      6.520900    1.200000    0.048900
N      7.859300    1.269900    0.071500
H      6.095500   -2.154500    0.022500
H      8.626300   -2.019800    0.065200
H      9.643500    0.282300    0.095400
