22

O      1.225500   -0.000000   -0.000000
C      0.000000   -0.000000   -0.000000
N     -0.713000    0.000000    1.154400
H     -1.712600    0.063700    1.111800
C     -0.806800   -0.008800   -1.275400
C     -0.038900    0.050500    2.435000
H     -0.754300   -0.173300    3.220300
H      0.760300   -0.685200    2.452100
H      0.401600    1.029800    2.616000
H     -1.879900   -0.053500   -1.105800
H     -0.500400   -0.864800   -1.870900
H     -0.569100    0.889100   -1.840600
C      5.924400   -0.283200   -0.336400
C      6.604100    0.607800   -1.166800
C      7.975900    0.454500   -1.223900
C      8.537900   -0.563600   -0.455000
Br     4.048500   -0.158300   -0.188000
N      6.496900   -1.244300    0.383700
N      7.828300   -1.386600    0.322900
H      6.075200    1.365800   -1.724400
H      8.592900    1.094800   -1.837900
H      9.603800   -0.744400   -0.448300
