22

O      1.225500   -0.000000   -0.000000
C      0.000000   -0.000000   -0.000000
N     -0.713000    0.000000    1.154400
H     -1.712600    0.063700    1.111800
C     -0.806800   -0.008800   -1.275400
C     -0.038900    0.050500    2.435000
H     -0.754300   -0.173300    3.220300
H      0.760300   -0.685200    2.452100
H      0.401600    1.029800    2.616000
H     -1.879900   -0.053500   -1.105800
H     -0.500400   -0.864800   -1.870900
H     -0.569100    0.889100   -1.840600
C      6.742600   -0.969800   -1.154100
C      7.401000   -0.154100   -2.074200
C      8.727200   -0.459200   -2.312100
C      9.269300   -1.539300   -1.617200
Br     4.928900   -0.637400   -0.758400
N      7.294900   -1.994200   -0.509300
N      8.582100   -2.283700   -0.745700
H      6.890600    0.662300   -2.562100
H      9.324700    0.112800   -3.007500
H     10.299700   -1.838100   -1.750900
