22

O      1.225500   -0.000000   -0.000000
C      0.000000   -0.000000   -0.000000
N     -0.713000    0.000000    1.154400
H     -1.712600    0.063700    1.111800
C     -0.806800   -0.008800   -1.275400
C     -0.038900    0.050500    2.435000
H     -0.754300   -0.173300    3.220300
H      0.760300   -0.685200    2.452100
H      0.401600    1.029800    2.616000
H     -1.879900   -0.053500   -1.105800
H     -0.500400   -0.864800   -1.870900
H     -0.569100    0.889100   -1.840600
C      3.613800   -3.338700    3.982600
C      3.899200   -4.669200    3.676300
C      4.460900   -5.416600    4.693300
C      4.684100   -4.774500    5.910300
Br     2.845000   -2.232400    2.662900
N      3.841800   -2.760000    5.158700
N      4.387100   -3.492000    6.140300
H      3.687600   -5.074900    2.698600
H      4.718700   -6.457100    4.556400
H      5.120200   -5.294000    6.752200
