22

O      1.225500   -0.000000   -0.000000
C      0.000000   -0.000000   -0.000000
N     -0.713000    0.000000    1.154400
H     -1.712600    0.063700    1.111800
C     -0.806800   -0.008800   -1.275400
C     -0.038900    0.050500    2.435000
H     -0.754300   -0.173300    3.220300
H      0.760300   -0.685200    2.452100
H      0.401600    1.029800    2.616000
H     -1.879900   -0.053500   -1.105800
H     -0.500400   -0.864800   -1.870900
H     -0.569100    0.889100   -1.840600
C     -0.761200    4.645700    2.679900
C     -0.998900    4.592000    4.053200
C     -1.492500    5.747800    4.626900
C     -1.701500    6.840000    3.786200
Br    -0.086900    3.120100    1.799800
N     -0.973600    5.709000    1.909000
N     -1.452600    6.826600    2.473300
H     -0.803700    3.693800    4.619100
H     -1.709500    5.808200    5.683800
H     -2.085400    7.777900    4.162600
