22

H     -0.569100    0.889100   -1.840600
C     -0.806800   -0.008800   -1.275400
H     -0.500400   -0.864800   -1.870900
H     -1.879900   -0.053500   -1.105800
C      0.000000   -0.000000   -0.000000
O      1.225500   -0.000000   -0.000000
N     -0.713000    0.000000    1.154400
H     -1.712600    0.063700    1.111800
C     -0.038900    0.050500    2.435000
H      0.401600    1.029800    2.616000
H      0.760300   -0.685200    2.452100
H     -0.754300   -0.173300    3.220300
C     -2.079000    2.998700   -3.577600
C     -2.474000    4.288500   -3.222800
C     -3.283400    4.944000   -4.130400
C     -3.620900    4.259400   -5.296900
Br    -0.972700    2.017600   -2.407000
N     -2.422300    2.377100   -4.702700
N     -3.207900    3.019900   -5.578100
H     -2.157600    4.733100   -2.291400
H     -3.643000    5.946600   -3.948500
H     -4.250200    4.707300   -6.053400
