22

O      1.225500   -0.000000   -0.000000
C      0.000000   -0.000000   -0.000000
N     -0.713000    0.000000    1.154400
H     -1.712600    0.063700    1.111800
C     -0.806800   -0.008800   -1.275400
C     -0.038900    0.050500    2.435000
H     -0.754300   -0.173300    3.220300
H      0.760300   -0.685200    2.452100
H      0.401600    1.029800    2.616000
H     -1.879900   -0.053500   -1.105800
H     -0.500400   -0.864800   -1.870900
H     -0.569100    0.889100   -1.840600
C      5.124200    1.980200   -1.142100
C      5.712800    2.887200   -0.261000
C      6.895600    3.461200   -0.685200
C      7.377700    3.081400   -1.936800
Br     3.506400    1.140600   -0.657800
N      5.615500    1.642200   -2.331400
N      6.763600    2.203600   -2.735700
H      5.258600    3.115800    0.691100
H      7.429500    4.176100   -0.075500
H      8.296700    3.487700   -2.335900
