22

O      1.225500   -0.000000   -0.000000
C      0.000000   -0.000000   -0.000000
N     -0.713000    0.000000    1.154400
H     -1.712600    0.063700    1.111800
C     -0.806800   -0.008800   -1.275400
C     -0.038900    0.050500    2.435000
H     -0.754300   -0.173300    3.220300
H      0.760300   -0.685200    2.452100
H      0.401600    1.029800    2.616000
H     -1.879900   -0.053500   -1.105800
H     -0.500400   -0.864800   -1.870900
H     -0.569100    0.889100   -1.840600
C      1.982100   -2.865100   -3.412500
C      2.097400   -2.366000   -4.709800
C      2.315000   -3.303400   -5.701000
C      2.396800   -4.639200   -5.310700
Br     1.683900   -1.667700   -1.986300
N      2.066000   -4.150100   -3.078300
N      2.277200   -5.053400   -4.045800
H      2.019000   -1.308300   -4.910300
H      2.418400   -3.018300   -6.738200
H      2.565400   -5.429000   -6.029600
