22

O      1.225500   -0.000000   -0.000000
C      0.000000   -0.000000   -0.000000
N     -0.713000    0.000000    1.154400
H     -1.712600    0.063700    1.111800
C     -0.806800   -0.008800   -1.275400
C     -0.038900    0.050500    2.435000
H     -0.754300   -0.173300    3.220300
H      0.760300   -0.685200    2.452100
H      0.401600    1.029800    2.616000
H     -1.879900   -0.053500   -1.105800
H     -0.500400   -0.864800   -1.870900
H     -0.569100    0.889100   -1.840600
C      1.588000    4.436700    0.781100
C      1.643300    4.895800    2.097100
C      1.740500    6.264600    2.256200
C      1.773300    7.041900    1.099500
Br     1.454400    2.584000    0.455000
N      1.621900    5.211300   -0.300000
N      1.716300    6.538400   -0.137100
H      1.611000    4.209600    2.929700
H      1.789500    6.719500    3.235200
H      1.848400    8.119500    1.144300
