22

H     -0.569100    0.889100   -1.840600
C     -0.806800   -0.008800   -1.275400
H     -0.500400   -0.864800   -1.870900
H     -1.879900   -0.053500   -1.105800
C      0.000000   -0.000000   -0.000000
O      1.225500   -0.000000   -0.000000
N     -0.713000    0.000000    1.154400
H     -1.712600    0.063700    1.111800
C     -0.038900    0.050500    2.435000
H      0.401600    1.029800    2.616000
H      0.760300   -0.685200    2.452100
H     -0.754300   -0.173300    3.220300
C      0.412100    1.519100   -4.178000
C      0.289700    2.891700   -4.393400
C      0.028300    3.278700   -5.693600
C     -0.085900    2.270800   -6.649800
Br     0.769000    0.886400   -2.437600
N      0.296300    0.585200   -5.118400
N      0.042600    0.968700   -6.377400
H      0.395700    3.595900   -3.582200
H     -0.084100    4.318900   -5.963800
H     -0.289500    2.496200   -7.687400
