22

O      1.225500   -0.000000   -0.000000
C      0.000000   -0.000000   -0.000000
N     -0.713000    0.000000    1.154400
H     -1.712600    0.063700    1.111800
C     -0.806800   -0.008800   -1.275400
C     -0.038900    0.050500    2.435000
H     -0.754300   -0.173300    3.220300
H      0.760300   -0.685200    2.452100
H      0.401600    1.029800    2.616000
H     -1.879900   -0.053500   -1.105800
H     -0.500400   -0.864800   -1.870900
H     -0.569100    0.889100   -1.840600
C      0.374300    4.020800    2.319700
C      0.251500    3.994500    3.708800
C     -0.010800    5.207500    4.315600
C     -0.125300    6.324200    3.489100
Br     0.732400    2.417000    1.394400
N      0.258200    5.109100    1.563200
N      0.003600    6.282200    2.159600
H      0.357800    3.073400    4.261400
H     -0.123500    5.293000    5.386900
H     -0.329600    7.306800    3.891200
