22

O      1.225500   -0.000000   -0.000000
C      0.000000   -0.000000   -0.000000
N     -0.713000    0.000000    1.154400
H     -1.712600    0.063700    1.111800
C     -0.806800   -0.008800   -1.275400
C     -0.038900    0.050500    2.435000
H     -0.754300   -0.173300    3.220300
H      0.760300   -0.685200    2.452100
H      0.401600    1.029800    2.616000
H     -1.879900   -0.053500   -1.105800
H     -0.500400   -0.864800   -1.870900
H     -0.569100    0.889100   -1.840600
C     -0.416900   -4.357100    0.768800
C     -0.653300   -5.199000   -0.317900
C     -1.146200   -6.453400   -0.014700
C     -1.356000   -6.749700    1.331200
Br     0.256500   -2.622300    0.462700
N     -0.630000   -4.676200    2.042700
N     -1.108400   -5.895300    2.328500
H     -0.457500   -4.874500   -1.328600
H     -1.362100   -7.179300   -0.785600
H     -1.739600   -7.710400    1.645600
