22

O      1.225500   -0.000000   -0.000000
C      0.000000   -0.000000   -0.000000
N     -0.713000    0.000000    1.154400
H     -1.712600    0.063700    1.111800
C     -0.806800   -0.008800   -1.275400
C     -0.038900    0.050500    2.435000
H     -0.754300   -0.173300    3.220300
H      0.760300   -0.685200    2.452100
H      0.401600    1.029800    2.616000
H     -1.879900   -0.053500   -1.105800
H     -0.500400   -0.864800   -1.870900
H     -0.569100    0.889100   -1.840600
C      5.104900    1.343800    3.688900
C      5.584700    0.367000    4.561400
C      6.543100    0.782100    5.465500
C      6.931100    2.120200    5.416700
Br     3.793800    0.879900    2.415200
N      5.500500    2.614000    3.672500
N      6.430800    3.008800    4.553000
H      5.218600   -0.647600    4.519400
H      6.977800    0.101400    6.183500
H      7.675500    2.518100    6.092300
