22

O      1.225500   -0.000000   -0.000000
C      0.000000   -0.000000   -0.000000
N     -0.713000    0.000000    1.154400
H     -1.712600    0.063700    1.111800
C     -0.806800   -0.008800   -1.275400
C     -0.038900    0.050500    2.435000
H     -0.754300   -0.173300    3.220300
H      0.760300   -0.685200    2.452100
H      0.401600    1.029800    2.616000
H     -1.879900   -0.053500   -1.105800
H     -0.500400   -0.864800   -1.870900
H     -0.569100    0.889100   -1.840600
C      2.151500    3.498600    4.167300
C      2.265700    2.999700    5.464800
C      2.482000    3.937100    6.456100
C      2.563800    5.272900    6.065900
Br     1.855000    2.301100    2.740900
N      2.235400    4.783700    3.833100
N      2.445400    5.687100    4.800800
H      2.187300    1.941900    5.665200
H      2.584500    3.652100    7.493500
H      2.731500    6.062800    6.784800
