22

O      1.225500   -0.000000   -0.000000
C      0.000000   -0.000000   -0.000000
N     -0.713000    0.000000    1.154400
H     -1.712600    0.063700    1.111800
C     -0.806800   -0.008800   -1.275400
C     -0.038900    0.050500    2.435000
H     -0.754300   -0.173300    3.220300
H      0.760300   -0.685200    2.452100
H      0.401600    1.029800    2.616000
H     -1.879900   -0.053500   -1.105800
H     -0.500400   -0.864800   -1.870900
H     -0.569100    0.889100   -1.840600
C      6.344900    0.000800   -0.028500
C      7.027200    1.217300   -0.032300
C      8.406100    1.136900   -0.054500
C      8.972000   -0.137000   -0.070700
Br     4.459200    0.000500    0.001300
N      6.921300   -1.198200   -0.044400
N      8.259700   -1.267700   -0.065900
H      6.494800    2.156200   -0.018500
H      9.025700    2.022300   -0.059200
H     10.043600   -0.279500   -0.088400
