22

O      1.225500   -0.000000   -0.000000
C      0.000000   -0.000000   -0.000000
N     -0.713000    0.000000    1.154400
H     -1.712600    0.063700    1.111800
C     -0.806800   -0.008800   -1.275400
C     -0.038900    0.050500    2.435000
H     -0.754300   -0.173300    3.220300
H      0.760300   -0.685200    2.452100
H      0.401600    1.029800    2.616000
H     -1.879900   -0.053500   -1.105800
H     -0.500400   -0.864800   -1.870900
H     -0.569100    0.889100   -1.840600
C      5.649600   -1.421800    0.823600
C      6.290100   -2.235600   -0.110700
C      7.578000   -2.622000    0.206300
C      8.103300   -2.165700    1.414200
Br     3.888200   -0.838700    0.485900
N      6.184900   -1.005900    1.968400
N      7.435000   -1.385200    2.268600
H      5.795200   -2.536200   -1.021700
H      8.159000   -3.252300   -0.451700
H      9.103900   -2.426400    1.730100
