22

O      1.225500   -0.000000   -0.000000
C      0.000000   -0.000000   -0.000000
N     -0.713000    0.000000    1.154400
H     -1.712600    0.063700    1.111800
C     -0.806800   -0.008800   -1.275400
C     -0.038900    0.050500    2.435000
H     -0.754300   -0.173300    3.220300
H      0.760300   -0.685200    2.452100
H      0.401600    1.029800    2.616000
H     -1.879900   -0.053500   -1.105800
H     -0.500400   -0.864800   -1.870900
H     -0.569100    0.889100   -1.840600
C      2.949700   -3.099600   -3.691600
C      3.179800   -2.581100   -4.965900
C      3.630500   -3.480900   -5.912300
C      3.808300   -4.802100   -5.504600
Br     2.332800   -1.953700   -2.326700
N      3.131400   -4.369700   -3.339600
N      3.568900   -5.236500   -4.263700
H      3.011000   -1.537300   -5.182900
H      3.838200   -3.178300   -6.928700
H      4.158100   -5.562700   -6.188700
