22

O      1.225500   -0.000000   -0.000000
C      0.000000   -0.000000   -0.000000
N     -0.713000    0.000000    1.154400
H     -1.712600    0.063700    1.111800
C     -0.806800   -0.008800   -1.275400
C     -0.038900    0.050500    2.435000
H     -0.754300   -0.173300    3.220300
H      0.760300   -0.685200    2.452100
H      0.401600    1.029800    2.616000
H     -1.879900   -0.053500   -1.105800
H     -0.500400   -0.864800   -1.870900
H     -0.569100    0.889100   -1.840600
C     -0.554600    4.726800   -0.835500
C     -0.792100    5.568500    0.251000
C     -1.285300    6.822800   -0.052500
C     -1.494100    7.119100   -1.398600
Br     0.119200    2.992200   -0.529000
N     -0.766800    5.045900   -2.109500
N     -1.245400    6.264800   -2.395700
H     -0.597000    5.244100    1.261800
H     -1.502100    7.548500    0.718300
H     -1.877700    8.079700   -1.713200
