22

O      1.225500   -0.000000   -0.000000
C      0.000000   -0.000000   -0.000000
N     -0.713000    0.000000    1.154400
H     -1.712600    0.063700    1.111800
C     -0.806800   -0.008800   -1.275400
C     -0.038900    0.050500    2.435000
H     -0.754300   -0.173300    3.220300
H      0.760300   -0.685200    2.452100
H      0.401600    1.029800    2.616000
H     -1.879900   -0.053500   -1.105800
H     -0.500400   -0.864800   -1.870900
H     -0.569100    0.889100   -1.840600
C      6.382800    1.250100    3.431300
C      6.939500    0.242300    4.218700
C      8.055600    0.595400    4.952300
C      8.509200    1.908200    4.834200
Br     4.856200    0.871000    2.390900
N      6.845200    2.494500    3.344300
N      7.928500    2.829200    4.059200
H      6.511800   -0.748500    4.242200
H      8.560300   -0.113300    5.593300
H      9.376200    2.257900    5.377200
