22

O      1.225500   -0.000000   -0.000000
C      0.000000   -0.000000   -0.000000
N     -0.713000    0.000000    1.154400
H     -1.712600    0.063700    1.111800
C     -0.806800   -0.008800   -1.275400
C     -0.038900    0.050500    2.435000
H     -0.754300   -0.173300    3.220300
H      0.760300   -0.685200    2.452100
H      0.401600    1.029800    2.616000
H     -1.879900   -0.053500   -1.105800
H     -0.500400   -0.864800   -1.870900
H     -0.569100    0.889100   -1.840600
C      4.822100   -2.647100   -1.526200
C      5.343100   -2.421600   -2.800300
C      6.385000   -3.244600   -3.181700
C      6.807400   -4.207300   -2.266200
Br     3.396800   -1.577300   -0.909400
N      5.252700   -3.578100   -0.678900
N      6.264100   -4.372600   -1.056500
H      4.944600   -1.646700   -3.437300
H      6.857100   -3.150200   -4.149200
H      7.616700   -4.887100   -2.493500
