22

O      1.225500   -0.000000   -0.000000
C      0.000000   -0.000000   -0.000000
N     -0.713000    0.000000    1.154400
H     -1.712600    0.063700    1.111800
C     -0.806800   -0.008800   -1.275400
C     -0.038900    0.050500    2.435000
H     -0.754300   -0.173300    3.220300
H      0.760300   -0.685200    2.452100
H      0.401600    1.029800    2.616000
H     -1.879900   -0.053500   -1.105800
H     -0.500400   -0.864800   -1.870900
H     -0.569100    0.889100   -1.840600
C      5.673900   -3.888400   -2.242200
C      6.154200   -3.700800   -3.538100
C      7.113400   -4.599500   -3.963300
C      7.501400   -5.592800   -3.065500
Br     4.361700   -2.715000   -1.565500
N      6.069500   -4.850600   -1.412800
N      7.000600   -5.718600   -1.832900
H      5.788000   -2.897000   -4.158500
H      7.548600   -4.539500   -4.950600
H      8.246500   -6.331500   -3.326700
