22

O      1.225500   -0.000000   -0.000000
C      0.000000   -0.000000   -0.000000
N     -0.713000    0.000000    1.154400
H     -1.712600    0.063700    1.111800
C     -0.806800   -0.008800   -1.275400
C     -0.038900    0.050500    2.435000
H     -0.754300   -0.173300    3.220300
H      0.760300   -0.685200    2.452100
H      0.401600    1.029800    2.616000
H     -1.879900   -0.053500   -1.105800
H     -0.500400   -0.864800   -1.870900
H     -0.569100    0.889100   -1.840600
C      3.355700    3.825300    4.556800
C      3.585100    3.307000    5.831200
C      4.034800    4.207000    6.777900
C      4.212400    5.528200    6.370400
Br     2.740200    2.679100    3.191500
N      3.537100    5.095400    4.204900
N      3.973600    5.962500    5.129300
H      3.416600    2.263100    6.048200
H      4.241900    3.904500    7.794500
H      4.561400    6.289000    7.054700
