22

O      1.225500   -0.000000   -0.000000
C      0.000000   -0.000000   -0.000000
N     -0.713000    0.000000    1.154400
H     -1.712600    0.063700    1.111800
C     -0.806800   -0.008800   -1.275400
C     -0.038900    0.050500    2.435000
H     -0.754300   -0.173300    3.220300
H      0.760300   -0.685200    2.452100
H      0.401600    1.029800    2.616000
H     -1.879900   -0.053500   -1.105800
H     -0.500400   -0.864800   -1.870900
H     -0.569100    0.889100   -1.840600
C      2.294100   -6.134200   -1.079600
C      2.409300   -6.585800   -2.394200
C      2.626600   -7.941100   -2.550900
C      2.708000   -8.713500   -1.393300
Br     1.996400   -4.300100   -0.756700
N      2.377700   -6.903800    0.002500
N      2.588600   -8.217700   -0.158100
H      2.331100   -5.904400   -3.227600
H      2.729800   -8.389400   -3.528700
H      2.876300   -9.780600   -1.436300
