22

O      1.225500   -0.000000   -0.000000
C      0.000000   -0.000000   -0.000000
N     -0.713000    0.000000    1.154400
H     -1.712600    0.063700    1.111800
C     -0.806800   -0.008800   -1.275400
C     -0.038900    0.050500    2.435000
H     -0.754300   -0.173300    3.220300
H      0.760300   -0.685200    2.452100
H      0.401600    1.029800    2.616000
H     -1.879900   -0.053500   -1.105800
H     -0.500400   -0.864800   -1.870900
H     -0.569100    0.889100   -1.840600
C      1.746200    5.453500   -3.150300
C      1.801300    6.651000   -2.437300
C      1.898800    7.801900   -3.195200
C      1.932100    7.653800   -4.581000
Br     1.612200    3.824600   -2.209300
N      1.780600    5.351900   -4.476400
N      1.875300    6.473200   -5.204700
H      1.768600    6.660500   -1.358400
H      1.947700    8.779600   -2.737700
H      2.007500    8.508100   -5.239300
