22

O      1.225500   -0.000000   -0.000000
C      0.000000   -0.000000   -0.000000
N     -0.713000    0.000000    1.154400
H     -1.712600    0.063700    1.111800
C     -0.806800   -0.008800   -1.275400
C     -0.038900    0.050500    2.435000
H     -0.754300   -0.173300    3.220300
H      0.760300   -0.685200    2.452100
H      0.401600    1.029800    2.616000
H     -1.879900   -0.053500   -1.105800
H     -0.500400   -0.864800   -1.870900
H     -0.569100    0.889100   -1.840600
C      4.540600    3.308000   -0.582800
C      5.020100    3.997500    0.530800
C      5.978900    4.959700    0.279400
C      6.367500    5.143800   -1.046700
Br     3.229000    1.973500   -0.347600
N      4.936800    3.512200   -1.836300
N      5.867600    4.447600   -2.072000
H      4.653500    3.780300    1.522600
H      6.413400    5.548600    1.074500
H      7.112300    5.877900   -1.320900
