22

O      1.225500   -0.000000   -0.000000
C      0.000000   -0.000000   -0.000000
N     -0.713000    0.000000    1.154400
H     -1.712600    0.063700    1.111800
C     -0.806800   -0.008800   -1.275400
C     -0.038900    0.050500    2.435000
H     -0.754300   -0.173300    3.220300
H      0.760300   -0.685200    2.452100
H      0.401600    1.029800    2.616000
H     -1.879900   -0.053500   -1.105800
H     -0.500400   -0.864800   -1.870900
H     -0.569100    0.889100   -1.840600
C     -1.959600    3.506200   -4.182900
C     -2.304600    4.816700   -3.852800
C     -3.013600    5.514800   -4.811100
C     -3.310300    4.848100   -5.998800
Br    -0.990500    2.466900   -2.943000
N     -2.261300    2.902800   -5.329600
N     -2.949400    3.587000   -6.254300
H     -2.026700    5.244600   -2.901500
H     -3.328000    6.536400   -4.651700
H     -3.861700    5.329100   -6.794800
