22

O      1.225500   -0.000000   -0.000000
C      0.000000   -0.000000   -0.000000
N     -0.713000    0.000000    1.154400
H     -1.712600    0.063700    1.111800
C     -0.806800   -0.008800   -1.275400
C     -0.038900    0.050500    2.435000
H     -0.754300   -0.173300    3.220300
H      0.760300   -0.685200    2.452100
H      0.401600    1.029800    2.616000
H     -1.879900   -0.053500   -1.105800
H     -0.500400   -0.864800   -1.870900
H     -0.569100    0.889100   -1.840600
C      3.906500   -2.494900    2.976600
C      4.295100   -3.787500    2.625200
C      5.067100   -4.459900    3.552700
C      5.377300   -3.787700    4.733900
Br     2.850300   -1.491200    1.779200
N      4.223000   -1.885500    4.116100
N      4.972300   -2.544600    5.010900
H      4.001900   -4.221600    1.681400
H      5.418800   -5.466100    3.375100
H      5.976800   -4.249000    5.506400
