22

O      1.225500   -0.000000   -0.000000
C      0.000000   -0.000000   -0.000000
N     -0.713000    0.000000    1.154400
H     -1.712600    0.063700    1.111800
C     -0.806800   -0.008800   -1.275400
C     -0.038900    0.050500    2.435000
H     -0.754300   -0.173300    3.220300
H      0.760300   -0.685200    2.452100
H      0.401600    1.029800    2.616000
H     -1.879900   -0.053500   -1.105800
H     -0.500400   -0.864800   -1.870900
H     -0.569100    0.889100   -1.840600
C      7.121200    2.410600   -1.389700
C      7.737600    3.272000   -0.482200
C      8.977800    3.754400   -0.853300
C      9.484000    3.337400   -2.083400
Br     5.425100    1.696300   -0.977900
N      7.637000    2.034700   -2.557000
N      8.840800    2.507200   -2.909800
H      7.260800    3.535700    0.449600
H      9.537000    4.427900   -0.219700
H     10.447500    3.672600   -2.441300
