22

O      1.225500   -0.000000   -0.000000
C      0.000000   -0.000000   -0.000000
N     -0.713000    0.000000    1.154400
H     -1.712600    0.063700    1.111800
C     -0.806800   -0.008800   -1.275400
C     -0.038900    0.050500    2.435000
H     -0.754300   -0.173300    3.220300
H      0.760300   -0.685200    2.452100
H      0.401600    1.029800    2.616000
H     -1.879900   -0.053500   -1.105800
H     -0.500400   -0.864800   -1.870900
H     -0.569100    0.889100   -1.840600
C      6.547100   -1.285700    3.539800
C      7.104200   -2.563700    3.495100
C      8.220300   -2.764500    4.283900
C      8.673700   -1.682800    5.037300
Br     5.020300   -0.907700    2.499300
N      7.009200   -0.276400    4.273100
N      8.092700   -0.479400    5.035800
H      6.676700   -3.337800    2.876100
H      8.725300   -3.719200    4.319200
H      9.540800   -1.763800    5.678100
