22

O      1.225500   -0.000000   -0.000000
C      0.000000   -0.000000   -0.000000
N     -0.713000    0.000000    1.154400
H     -1.712600    0.063700    1.111800
C     -0.806800   -0.008800   -1.275400
C     -0.038900    0.050500    2.435000
H     -0.754300   -0.173300    3.220300
H      0.760300   -0.685200    2.452100
H      0.401600    1.029800    2.616000
H     -1.879900   -0.053500   -1.105800
H     -0.500400   -0.864800   -1.870900
H     -0.569100    0.889100   -1.840600
C      4.459800    3.638200   -4.336400
C      4.797500    4.951300   -4.009000
C      5.467500    5.664300   -4.984200
C      5.736400    5.008400   -6.184500
Br     3.543100    2.578900   -3.073800
N      4.734300    3.045400   -5.495400
N      5.384600    3.744100   -6.436500
H      4.543200    5.370000   -3.047100
H      5.773000    6.689100   -4.828200
H      6.256700    5.501300   -6.994000
