22

O      1.225500   -0.000000   -0.000000
C      0.000000   -0.000000   -0.000000
N     -0.713000    0.000000    1.154400
H     -1.712600    0.063700    1.111800
C     -0.806800   -0.008800   -1.275400
C     -0.038900    0.050500    2.435000
H     -0.754300   -0.173300    3.220300
H      0.760300   -0.685200    2.452100
H      0.401600    1.029800    2.616000
H     -1.879900   -0.053500   -1.105800
H     -0.500400   -0.864800   -1.870900
H     -0.569100    0.889100   -1.840600
C      3.560400   -0.000700   -4.101300
C      3.898400    1.215600   -4.694500
C      4.568600    1.134800   -5.899800
C      4.837300   -0.139300   -6.397600
Br     2.643300   -0.000400   -2.453400
N      3.834500   -1.199900   -4.608200
N      4.485100   -1.269800   -5.778000
H      3.644300    2.154600   -4.226800
H      4.874400    2.019900   -6.438900
H      5.357700   -0.282200   -7.334500
