22

O      1.225500   -0.000000   -0.000000
C      0.000000   -0.000000   -0.000000
N     -0.713000    0.000000    1.154400
H     -1.712600    0.063700    1.111800
C     -0.806800   -0.008800   -1.275400
C     -0.038900    0.050500    2.435000
H     -0.754300   -0.173300    3.220300
H      0.760300   -0.685200    2.452100
H      0.401600    1.029800    2.616000
H     -1.879900   -0.053500   -1.105800
H     -0.500400   -0.864800   -1.870900
H     -0.569100    0.889100   -1.840600
C      2.326000    6.328300    1.114500
C      2.440200    6.780100    2.429200
C      2.656900    8.135400    2.586000
C      2.739000    8.907800    1.428500
Br     2.029000    4.494200    0.791500
N      2.410100    7.097900    0.032500
N      2.620500    8.412000    0.193200
H      2.361500    6.098600    3.262600
H      2.759400    8.583700    3.563900
H      2.906900    9.975000    1.471500
