22

O      1.225500   -0.000000   -0.000000
C      0.000000   -0.000000   -0.000000
N     -0.713000    0.000000    1.154400
H     -1.712600    0.063700    1.111800
C     -0.806800   -0.008800   -1.275400
C     -0.038900    0.050500    2.435000
H     -0.754300   -0.173300    3.220300
H      0.760300   -0.685200    2.452100
H      0.401600    1.029800    2.616000
H     -1.879900   -0.053500   -1.105800
H     -0.500400   -0.864800   -1.870900
H     -0.569100    0.889100   -1.840600
C      1.194600   -5.645100    3.261100
C      1.191300   -6.844500    2.549300
C      1.168400   -7.998200    3.308800
C      1.151000   -7.850800    4.694900
Br     1.225200   -4.012300    2.317900
N      1.177500   -5.544200    4.587600
N      1.155300   -6.668300    5.317500
H      1.206000   -6.853400    1.470000
H      1.164000   -8.977700    2.852300
H      1.132600   -8.707300    5.354500
