22

O      1.224000    0.000000    0.000000
C      0.000000    0.000000    0.000000
N     -0.718000    0.000000    1.154000
H     -1.717000    0.061000    1.108000
C     -0.809000   -0.010000   -1.276000
C     -0.049000    0.046000    2.436000
H     -0.777000   -0.133000    3.221000
H      0.720000   -0.720000    2.476000
H      0.429000    1.010000    2.602000
H     -1.882000   -0.038000   -1.106000
H     -0.515000   -0.876000   -1.863000
H     -0.559000    0.879000   -1.850000
C      5.860100    2.134500   -1.638500
C      5.293800    3.159500   -2.396200
C      5.600200    4.446100   -1.997500
C      6.435100    4.590600   -0.890500
Br     5.504000    0.340900   -2.099900
N      6.654100    2.312100   -0.585900
N      6.946700    3.563600   -0.205400
H      4.656700    2.943300   -3.240300
H      5.211300    5.309100   -2.518900
H      6.719000    5.565800   -0.519800
