22

O      1.224000    0.000000    0.000000
C      0.000000    0.000000    0.000000
N     -0.718000    0.000000    1.154000
H     -1.717000    0.061000    1.108000
C     -0.809000   -0.010000   -1.276000
C     -0.049000    0.046000    2.436000
H     -0.777000   -0.133000    3.221000
H      0.720000   -0.720000    2.476000
H      0.429000    1.010000    2.602000
H     -1.882000   -0.038000   -1.106000
H     -0.515000   -0.876000   -1.863000
H     -0.559000    0.879000   -1.850000
C      5.230200   -2.635200   -0.031200
C      5.911400   -2.018800   -1.080700
C      6.941800   -2.747000   -1.643000
C      7.195500   -4.010800   -1.112000
Br     3.806000   -1.725000    0.805400
N      5.502000   -3.845700    0.449100
N      6.503300   -4.546000   -0.101900
H      5.637300   -1.031700   -1.420900
H      7.530500   -2.357800   -2.461400
H      7.985300   -4.639000   -1.499800
