22

O      1.224000    0.000000    0.000000
C      0.000000    0.000000    0.000000
N     -0.718000    0.000000    1.154000
H     -1.717000    0.061000    1.108000
C     -0.809000   -0.010000   -1.276000
C     -0.049000    0.046000    2.436000
H     -0.777000   -0.133000    3.221000
H      0.720000   -0.720000    2.476000
H      0.429000    1.010000    2.602000
H     -1.882000   -0.038000   -1.106000
H     -0.515000   -0.876000   -1.863000
H     -0.559000    0.879000   -1.850000
C     -0.335700    2.976400   -2.190100
C      0.302600    3.902000   -3.015500
C     -0.476000    4.952300   -3.461400
C     -1.806700    4.982500   -3.047100
Br     0.639300    1.504500   -1.527200
N     -1.610800    3.039000   -1.815500
N     -2.359600    4.061200   -2.252500
H      1.343100    3.789800   -3.280300
H     -0.075000    5.722000   -4.105400
H     -2.477100    5.772900   -3.355200
