22

O      1.224000    0.000000    0.000000
C      0.000000    0.000000    0.000000
N     -0.718000    0.000000    1.154000
H     -1.717000    0.061000    1.108000
C     -0.809000   -0.010000   -1.276000
C     -0.049000    0.046000    2.436000
H     -0.777000   -0.133000    3.221000
H      0.720000   -0.720000    2.476000
H      0.429000    1.010000    2.602000
H     -1.882000   -0.038000   -1.106000
H     -0.515000   -0.876000   -1.863000
H     -0.559000    0.879000   -1.850000
C      5.424100   -2.548500   -4.066000
C      5.840100   -3.719200   -4.699800
C      6.736500   -3.558600   -5.738500
C      7.131700   -2.257700   -6.046500
Br     4.200700   -2.658400   -2.635000
N      5.824500   -1.321500   -4.389100
N      6.694400   -1.174100   -5.398100
H      5.474000   -4.684800   -4.385300
H      7.119100   -4.403500   -6.293100
H      7.830100   -2.053200   -6.846100
