22

O      1.224000    0.000000    0.000000
C      0.000000    0.000000    0.000000
N     -0.718000    0.000000    1.154000
H     -1.717000    0.061000    1.108000
C     -0.809000   -0.010000   -1.276000
C     -0.049000    0.046000    2.436000
H     -0.777000   -0.133000    3.221000
H      0.720000   -0.720000    2.476000
H      0.429000    1.010000    2.602000
H     -1.882000   -0.038000   -1.106000
H     -0.515000   -0.876000   -1.863000
H     -0.559000    0.879000   -1.850000
C      4.760000   -0.785200   -1.074500
C      5.720900   -1.793100   -1.152300
C      6.212800   -2.063300   -2.414700
C      5.705800   -1.310600   -3.472900
Br     4.024400   -0.339000    0.603700
N      4.299900   -0.087100   -2.109500
N      4.782200   -0.355300   -3.331000
H      6.049600   -2.320600   -0.269800
H      6.960100   -2.826000   -2.580700
H      6.042300   -1.464900   -4.488700
