22

O      1.224000    0.000000    0.000000
C      0.000000    0.000000    0.000000
N     -0.718000    0.000000    1.154000
H     -1.717000    0.061000    1.108000
C     -0.809000   -0.010000   -1.276000
C     -0.049000    0.046000    2.436000
H     -0.777000   -0.133000    3.221000
H      0.720000   -0.720000    2.476000
H      0.429000    1.010000    2.602000
H     -1.882000   -0.038000   -1.106000
H     -0.515000   -0.876000   -1.863000
H     -0.559000    0.879000   -1.850000
C      4.196000   -0.687000   -0.498000
C      3.669600    0.219700   -1.417900
C      3.331700    1.461900   -0.916700
C      3.547700    1.683300    0.442600
Br     4.689600   -2.411300   -1.080800
N      4.387800   -0.438700    0.794900
N      4.057400    0.769000    1.273400
H      3.540600   -0.048800   -2.455400
H      2.916500    2.234300   -1.548200
H      3.308000    2.630000    0.906400
