22

O      1.224000    0.000000    0.000000
C      0.000000    0.000000    0.000000
N     -0.718000    0.000000    1.154000
H     -1.717000    0.061000    1.108000
C     -0.809000   -0.010000   -1.276000
C     -0.049000    0.046000    2.436000
H     -0.777000   -0.133000    3.221000
H      0.720000   -0.720000    2.476000
H      0.429000    1.010000    2.602000
H     -1.882000   -0.038000   -1.106000
H     -0.515000   -0.876000   -1.863000
H     -0.559000    0.879000   -1.850000
C      3.299500    3.050900    4.285100
C      2.295000    3.783900    4.916800
C      2.404400    5.158400    4.830700
C      3.495000    5.670200    4.129400
Br     3.242800    1.166800    4.343600
N      4.327400    3.576400    3.623600
N      4.426400    4.910800    3.544700
H      1.487600    3.291500    5.437300
H      1.676900    5.814700    5.286600
H      3.647500    6.734900    4.019500
