22

O      1.224000    0.000000    0.000000
C      0.000000    0.000000    0.000000
N     -0.718000    0.000000    1.154000
H     -1.717000    0.061000    1.108000
C     -0.809000   -0.010000   -1.276000
C     -0.049000    0.046000    2.436000
H     -0.777000   -0.133000    3.221000
H      0.720000   -0.720000    2.476000
H      0.429000    1.010000    2.602000
H     -1.882000   -0.038000   -1.106000
H     -0.515000   -0.876000   -1.863000
H     -0.559000    0.879000   -1.850000
C      3.287600    1.558600    3.143400
C      3.171600    2.383800    2.025000
C      3.054700    3.736300    2.281100
C      3.064300    4.137200    3.616200
Br     3.452500   -0.304600    2.902400
N      3.292800    1.979200    4.405600
N      3.179000    3.293000    4.645800
H      3.174600    1.974400    1.026200
H      2.959500    4.458400    1.482800
H      2.977300    5.178300    3.894600
