22

O      1.224000    0.000000    0.000000
C      0.000000    0.000000    0.000000
N     -0.718000    0.000000    1.154000
H     -1.717000    0.061000    1.108000
C     -0.809000   -0.010000   -1.276000
C     -0.049000    0.046000    2.436000
H     -0.777000   -0.133000    3.221000
H      0.720000   -0.720000    2.476000
H      0.429000    1.010000    2.602000
H     -1.882000   -0.038000   -1.106000
H     -0.515000   -0.876000   -1.863000
H     -0.559000    0.879000   -1.850000
C      1.177800   -4.406800   -2.741600
C      2.290300   -4.230200   -1.919000
C      2.988000   -5.376600   -1.591400
C      2.516600   -6.581900   -2.109300
Br     0.156400   -2.904400   -3.247600
N      0.757800   -5.576100   -3.217400
N      1.440300   -6.683800   -2.894900
H      2.575300   -3.249900   -1.568200
H      3.864300   -5.346000   -0.959700
H      3.009900   -7.520200   -1.896800
