22

O      1.224000    0.000000    0.000000
C      0.000000    0.000000    0.000000
N     -0.718000    0.000000    1.154000
H     -1.717000    0.061000    1.108000
C     -0.809000   -0.010000   -1.276000
C     -0.049000    0.046000    2.436000
H     -0.777000   -0.133000    3.221000
H      0.720000   -0.720000    2.476000
H      0.429000    1.010000    2.602000
H     -1.882000   -0.038000   -1.106000
H     -0.515000   -0.876000   -1.863000
H     -0.559000    0.879000   -1.850000
C      2.515000    3.222100   -1.098200
C      1.495900    3.513600   -0.191600
C      1.778700    3.262600    1.137100
C      3.039500    2.748900    1.436300
Br     2.230000    3.528900   -2.937000
N      3.708400    2.731400   -0.773800
N      3.975000    2.490600    0.517500
H      0.549100    3.911000   -0.524600
H      1.055500    3.454800    1.916800
H      3.333200    2.527300    2.453000
