22

O      1.224000    0.000000    0.000000
C      0.000000    0.000000    0.000000
N     -0.718000    0.000000    1.154000
H     -1.717000    0.061000    1.108000
C     -0.809000   -0.010000   -1.276000
C     -0.049000    0.046000    2.436000
H     -0.777000   -0.133000    3.221000
H      0.720000   -0.720000    2.476000
H      0.429000    1.010000    2.602000
H     -1.882000   -0.038000   -1.106000
H     -0.515000   -0.876000   -1.863000
H     -0.559000    0.879000   -1.850000
C      3.053900    0.137400   -3.202600
C      2.052500   -0.795900   -2.935100
C      1.660000   -1.583400   -4.000100
C      2.296100   -1.369500   -5.221900
Br     3.661600    1.261900   -1.815900
N      3.638600    0.312600   -4.384800
N      3.252100   -0.455400   -5.413100
H      1.620800   -0.884800   -1.949800
H      0.891500   -2.336000   -3.895800
H      2.042500   -1.946800   -6.100200
