22

O      1.224000    0.000000    0.000000
C      0.000000    0.000000    0.000000
N     -0.718000    0.000000    1.154000
H     -1.717000    0.061000    1.108000
C     -0.809000   -0.010000   -1.276000
C     -0.049000    0.046000    2.436000
H     -0.777000   -0.133000    3.221000
H      0.720000   -0.720000    2.476000
H      0.429000    1.010000    2.602000
H     -1.882000   -0.038000   -1.106000
H     -0.515000   -0.876000   -1.863000
H     -0.559000    0.879000   -1.850000
C      1.445500   -4.839900    2.817600
C      0.618700   -4.914700    3.938400
C      0.493500   -6.163800    4.515100
C      1.197700   -7.213100    3.926400
Br     1.683700   -3.179500    1.955700
N      2.102700   -5.866100    2.283600
N      1.976000   -7.074800    2.849000
H      0.114300   -4.039800    4.319600
H     -0.123700   -6.326500    5.387000
H      1.149200   -8.218400    4.321300
