22

O      1.224000    0.000000    0.000000
C      0.000000    0.000000    0.000000
N     -0.718000    0.000000    1.154000
H     -1.717000    0.061000    1.108000
C     -0.809000   -0.010000   -1.276000
C     -0.049000    0.046000    2.436000
H     -0.777000   -0.133000    3.221000
H      0.720000   -0.720000    2.476000
H      0.429000    1.010000    2.602000
H     -1.882000   -0.038000   -1.106000
H     -0.515000   -0.876000   -1.863000
H     -0.559000    0.879000   -1.850000
C      3.904400   -2.596800   -1.152300
C      4.462300   -2.443600   -2.421400
C      4.945100   -1.184500   -2.721600
C      4.828100   -0.203700   -1.737800
Br     3.216200   -4.277300   -0.643500
N      3.810300   -1.634700   -0.238200
N      4.281100   -0.415800   -0.537100
H      4.506400   -3.269200   -3.115400
H      5.395900   -0.963400   -3.678400
H      5.183000    0.804600   -1.899700
