22

O      1.224000    0.000000    0.000000
C      0.000000    0.000000    0.000000
N     -0.718000    0.000000    1.154000
H     -1.717000    0.061000    1.108000
C     -0.809000   -0.010000   -1.276000
C     -0.049000    0.046000    2.436000
H     -0.777000   -0.133000    3.221000
H      0.720000   -0.720000    2.476000
H      0.429000    1.010000    2.602000
H     -1.882000   -0.038000   -1.106000
H     -0.515000   -0.876000   -1.863000
H     -0.559000    0.879000   -1.850000
C      2.424400    1.104900   -3.919200
C      2.196600    2.474000   -3.781200
C      2.561000    3.259100   -4.857800
C      3.113800    2.612700   -5.962300
Br     1.961800   -0.054800   -2.505800
N      2.955400    0.523400   -4.991600
N      3.306400    1.292100   -6.032100
H      1.760800    2.879500   -2.880700
H      2.425400    4.331100   -4.849500
H      3.423100    3.160300   -6.841700
