22

O      1.224000    0.000000    0.000000
C      0.000000    0.000000    0.000000
N     -0.718000    0.000000    1.154000
H     -1.717000    0.061000    1.108000
C     -0.809000   -0.010000   -1.276000
C     -0.049000    0.046000    2.436000
H     -0.777000   -0.133000    3.221000
H      0.720000   -0.720000    2.476000
H      0.429000    1.010000    2.602000
H     -1.882000   -0.038000   -1.106000
H     -0.515000   -0.876000   -1.863000
H     -0.559000    0.879000   -1.850000
C      4.828900   -0.137800   -2.007200
C      5.693000    0.477700   -1.101800
C      6.985400    0.683900   -1.544200
C      7.293800    0.261300   -2.836400
Br     3.041900   -0.464900   -1.500800
N      5.160600   -0.528000   -3.235100
N      6.416500   -0.324400   -3.656900
H      5.356500    0.769200   -0.118500
H      7.730900    1.153300   -0.918300
H      8.283800    0.388800   -3.251800
