22

O      1.224000    0.000000    0.000000
C      0.000000    0.000000    0.000000
N     -0.718000    0.000000    1.154000
H     -1.717000    0.061000    1.108000
C     -0.809000   -0.010000   -1.276000
C     -0.049000    0.046000    2.436000
H     -0.777000   -0.133000    3.221000
H      0.720000   -0.720000    2.476000
H      0.429000    1.010000    2.602000
H     -1.882000   -0.038000   -1.106000
H     -0.515000   -0.876000   -1.863000
H     -0.559000    0.879000   -1.850000
C      4.859300    2.257700   -3.010100
C      5.589000    1.069000   -3.020600
C      5.841900    0.525900   -4.265300
C      5.348600    1.211600   -5.374300
Br     4.460400    3.081200   -1.361100
N      4.404300    2.884000   -4.092200
N      4.653900    2.350600   -5.296300
H      5.928200    0.614000   -2.102400
H      6.399000   -0.392900   -4.380500
H      5.506700    0.848100   -6.380200
