22

O      1.224000    0.000000    0.000000
C      0.000000    0.000000    0.000000
N     -0.718000    0.000000    1.154000
H     -1.717000    0.061000    1.108000
C     -0.809000   -0.010000   -1.276000
C     -0.049000    0.046000    2.436000
H     -0.777000   -0.133000    3.221000
H      0.720000   -0.720000    2.476000
H      0.429000    1.010000    2.602000
H     -1.882000   -0.038000   -1.106000
H     -0.515000   -0.876000   -1.863000
H     -0.559000    0.879000   -1.850000
C     -0.635500   -4.946800   -3.932000
C     -1.778000   -4.363800   -4.480100
C     -2.273400   -4.962400   -5.622400
C     -1.590400   -6.076400   -6.108000
Br     0.120700   -4.205400   -2.371500
N     -0.010200   -6.012500   -4.425300
N     -0.497200   -6.587500   -5.533900
H     -2.235100   -3.497400   -4.026800
H     -3.154200   -4.586400   -6.123100
H     -1.918200   -6.597500   -6.996700
