22

O      1.224000    0.000000    0.000000
C      0.000000    0.000000    0.000000
N     -0.718000    0.000000    1.154000
H     -1.717000    0.061000    1.108000
C     -0.809000   -0.010000   -1.276000
C     -0.049000    0.046000    2.436000
H     -0.777000   -0.133000    3.221000
H      0.720000   -0.720000    2.476000
H      0.429000    1.010000    2.602000
H     -1.882000   -0.038000   -1.106000
H     -0.515000   -0.876000   -1.863000
H     -0.559000    0.879000   -1.850000
C      2.182900    3.276300   -3.381700
C      1.086700    3.800500   -4.066400
C      1.369300    4.452800   -5.250900
C      2.706300    4.521500   -5.639700
Br     1.904900    2.366700   -1.753200
N      3.447700    3.362100   -3.785300
N      3.713700    3.996600   -4.935700
H      0.084300    3.694200   -3.680400
H      0.589500    4.893600   -5.855500
H      3.004700    5.015600   -6.553900
