22

O      1.224000    0.000000    0.000000
C      0.000000    0.000000    0.000000
N     -0.718000    0.000000    1.154000
H     -1.717000    0.061000    1.108000
C     -0.809000   -0.010000   -1.276000
C     -0.049000    0.046000    2.436000
H     -0.777000   -0.133000    3.221000
H      0.720000   -0.720000    2.476000
H      0.429000    1.010000    2.602000
H     -1.882000   -0.038000   -1.106000
H     -0.515000   -0.876000   -1.863000
H     -0.559000    0.879000   -1.850000
C      2.434600    2.602500   -1.049800
C      2.945500    2.072700    0.135000
C      3.574100    0.847200    0.027600
C      3.634600    0.268700   -1.239300
Br     1.557500    4.271600   -1.011500
N      2.512000    2.019300   -2.243100
N      3.123400    0.830300   -2.338900
H      2.847200    2.601100    1.071100
H      4.003100    0.352700    0.887400
H      4.110400   -0.688500   -1.401700
