22

O      1.224000    0.000000    0.000000
C      0.000000    0.000000    0.000000
N     -0.718000    0.000000    1.154000
H     -1.717000    0.061000    1.108000
C     -0.809000   -0.010000   -1.276000
C     -0.049000    0.046000    2.436000
H     -0.777000   -0.133000    3.221000
H      0.720000   -0.720000    2.476000
H      0.429000    1.010000    2.602000
H     -1.882000   -0.038000   -1.106000
H     -0.515000   -0.876000   -1.863000
H     -0.559000    0.879000   -1.850000
C      5.304700   -1.874600   -0.071300
C      6.438400   -2.635800    0.213200
C      6.385600   -3.963500   -0.164700
C      5.218400   -4.405500   -0.785700
Br     5.275100   -0.049900    0.404200
N      4.206800   -2.333000   -0.666800
N      4.163500   -3.622400   -1.030400
H      7.296800   -2.198400    0.700000
H      7.212600   -4.636400    0.011400
H      5.103500   -5.430600   -1.109400
