22

O      1.224000    0.000000    0.000000
C      0.000000    0.000000    0.000000
N     -0.718000    0.000000    1.154000
H     -1.717000    0.061000    1.108000
C     -0.809000   -0.010000   -1.276000
C     -0.049000    0.046000    2.436000
H     -0.777000   -0.133000    3.221000
H      0.720000   -0.720000    2.476000
H      0.429000    1.010000    2.602000
H     -1.882000   -0.038000   -1.106000
H     -0.515000   -0.876000   -1.863000
H     -0.559000    0.879000   -1.850000
C      3.860900    0.898800   -1.457300
C      4.296200    1.934700   -0.631000
C      4.488000    3.157500   -1.244500
C      4.230500    3.233800   -2.612400
Br     3.568700   -0.811100   -0.717500
N      3.625300    1.010300   -2.762000
N      3.813700    2.200100   -3.349800
H      4.468200    1.774000    0.422500
H      4.823900    4.022900   -0.691300
H      4.357800    4.156600   -3.161200
