22

O      1.224000    0.000000    0.000000
C      0.000000    0.000000    0.000000
N     -0.718000    0.000000    1.154000
H     -1.717000    0.061000    1.108000
C     -0.809000   -0.010000   -1.276000
C     -0.049000    0.046000    2.436000
H     -0.777000   -0.133000    3.221000
H      0.720000   -0.720000    2.476000
H      0.429000    1.010000    2.602000
H     -1.882000   -0.038000   -1.106000
H     -0.515000   -0.876000   -1.863000
H     -0.559000    0.879000   -1.850000
C      2.838500    2.100500    1.843700
C      3.650500    2.037100    0.711400
C      4.841800    1.353500    0.859400
C      5.111000    0.801600    2.110900
Br     1.189800    3.011100    1.747100
N      3.130100    1.559900    3.023800
N      4.287900    0.898300    3.159300
H      3.351300    2.499500   -0.216900
H      5.540300    1.248000    0.041600
H      6.022600    0.252900    2.302700
