22

O      1.224000    0.000000    0.000000
C      0.000000    0.000000    0.000000
N     -0.718000    0.000000    1.154000
H     -1.717000    0.061000    1.108000
C     -0.809000   -0.010000   -1.276000
C     -0.049000    0.046000    2.436000
H     -0.777000   -0.133000    3.221000
H      0.720000   -0.720000    2.476000
H      0.429000    1.010000    2.602000
H     -1.882000   -0.038000   -1.106000
H     -0.515000   -0.876000   -1.863000
H     -0.559000    0.879000   -1.850000
C      5.098000   -1.566400   -1.940800
C      5.905200   -2.066700   -0.919300
C      7.254000   -1.786700   -1.022600
C      7.669500   -1.040800   -2.124500
Br     3.241200   -1.893300   -1.893700
N      5.532100   -0.856800   -2.979100
N      6.842300   -0.589400   -3.072100
H      5.485400   -2.636400   -0.104200
H      7.962600   -2.129400   -0.282100
H      8.708800   -0.782500   -2.273200
