22

O      1.224000    0.000000    0.000000
C      0.000000    0.000000    0.000000
N     -0.718000    0.000000    1.154000
H     -1.717000    0.061000    1.108000
C     -0.809000   -0.010000   -1.276000
C     -0.049000    0.046000    2.436000
H     -0.777000   -0.133000    3.221000
H      0.720000   -0.720000    2.476000
H      0.429000    1.010000    2.602000
H     -1.882000   -0.038000   -1.106000
H     -0.515000   -0.876000   -1.863000
H     -0.559000    0.879000   -1.850000
C      0.726500    2.500100   -2.885000
C      1.368300    1.756400   -3.875100
C      1.611000    2.415800   -5.064600
C      1.195300    3.743300   -5.156000
Br     0.348800    1.692300   -1.223200
N      0.344000    3.768300   -3.009600
N      0.583100    4.401000   -4.166800
H      1.651600    0.728700   -3.706200
H      2.102800    1.927200   -5.893600
H      1.350700    4.323800   -6.054700
