22

O      1.224000    0.000000    0.000000
C      0.000000    0.000000    0.000000
N     -0.718000    0.000000    1.154000
H     -1.717000    0.061000    1.108000
C     -0.809000   -0.010000   -1.276000
C     -0.049000    0.046000    2.436000
H     -0.777000   -0.133000    3.221000
H      0.720000   -0.720000    2.476000
H      0.429000    1.010000    2.602000
H     -1.882000   -0.038000   -1.106000
H     -0.515000   -0.876000   -1.863000
H     -0.559000    0.879000   -1.850000
C      4.863300    2.207600    1.231900
C      4.305200    3.198600    2.039400
C      5.201600    4.006500    2.711800
C      6.559000    3.754100    2.518800
Br     3.725300    1.051000    0.270800
N      6.167200    1.996900    1.072700
N      7.030600    2.785000    1.728600
H      3.235200    3.313900    2.122800
H      4.869600    4.803100    3.362100
H      7.319400    4.344200    3.011100
