22

O      1.224000    0.000000    0.000000
C      0.000000    0.000000    0.000000
N     -0.718000    0.000000    1.154000
H     -1.717000    0.061000    1.108000
C     -0.809000   -0.010000   -1.276000
C     -0.049000    0.046000    2.436000
H     -0.777000   -0.133000    3.221000
H      0.720000   -0.720000    2.476000
H      0.429000    1.010000    2.602000
H     -1.882000   -0.038000   -1.106000
H     -0.515000   -0.876000   -1.863000
H     -0.559000    0.879000   -1.850000
C      3.622700    4.629500    0.080900
C      3.054500    5.064000   -1.116500
C      2.665300    6.388900   -1.155200
C      2.876500    7.151100   -0.007300
Br     4.187900    2.837100    0.237200
N      3.808500    5.388500    1.157700
N      3.428100    6.673000    1.112200
H      2.933300    4.392700   -1.953000
H      2.214800    6.822000   -2.036900
H      2.598000    8.194800    0.037800
