22

O      1.224000    0.000000    0.000000
C      0.000000    0.000000    0.000000
N     -0.718000    0.000000    1.154000
H     -1.717000    0.061000    1.108000
C     -0.809000   -0.010000   -1.276000
C     -0.049000    0.046000    2.436000
H     -0.777000   -0.133000    3.221000
H      0.720000   -0.720000    2.476000
H      0.429000    1.010000    2.602000
H     -1.882000   -0.038000   -1.106000
H     -0.515000   -0.876000   -1.863000
H     -0.559000    0.879000   -1.850000
C      2.775900   -2.886900   -3.083800
C      3.928300   -2.147100   -2.818800
C      5.127300   -2.781500   -3.080200
C      5.067200   -4.082600   -3.576800
Br     1.087200   -2.111900   -2.761000
N      2.758500   -4.129600   -3.558700
N      3.926200   -4.738200   -3.809700
H      3.869300   -1.140700   -2.433000
H      6.076100   -2.293600   -2.908400
H      5.963400   -4.642800   -3.805000
