22

O      1.224000    0.000000    0.000000
C      0.000000    0.000000    0.000000
N     -0.718000    0.000000    1.154000
H     -1.717000    0.061000    1.108000
C     -0.809000   -0.010000   -1.276000
C     -0.049000    0.046000    2.436000
H     -0.777000   -0.133000    3.221000
H      0.720000   -0.720000    2.476000
H      0.429000    1.010000    2.602000
H     -1.882000   -0.038000   -1.106000
H     -0.515000   -0.876000   -1.863000
H     -0.559000    0.879000   -1.850000
C      2.978200   -2.398900   -4.355500
C      1.893700   -3.033500   -4.960900
C      1.906500   -4.414500   -4.929200
C      2.989400   -5.029500   -4.302700
Br     3.056400   -0.514700   -4.344300
N      3.995600   -3.021500   -3.766100
N      4.000700   -4.361700   -3.739500
H      1.100300   -2.465000   -5.421900
H      1.112100   -4.999200   -5.370500
H      3.068900   -6.105800   -4.238500
