22

O      1.224000    0.000000    0.000000
C      0.000000    0.000000    0.000000
N     -0.718000    0.000000    1.154000
H     -1.717000    0.061000    1.108000
C     -0.809000   -0.010000   -1.276000
C     -0.049000    0.046000    2.436000
H     -0.777000   -0.133000    3.221000
H      0.720000   -0.720000    2.476000
H      0.429000    1.010000    2.602000
H     -1.882000   -0.038000   -1.106000
H     -0.515000   -0.876000   -1.863000
H     -0.559000    0.879000   -1.850000
C      4.692800    0.018300    0.147200
C      4.720900   -0.529700    1.429500
C      5.039700   -1.871700    1.506600
C      5.298500   -2.537000    0.309200
Br     4.268200    1.843200   -0.067300
N      4.946200   -0.650300   -0.974800
N      5.254800   -1.952100   -0.891500
H      4.504100    0.072200    2.298900
H      5.087800   -2.389600    2.453800
H      5.554500   -3.587300    0.289800
