22

O      1.224000    0.000000    0.000000
C      0.000000    0.000000    0.000000
N     -0.718000    0.000000    1.154000
H     -1.717000    0.061000    1.108000
C     -0.809000   -0.010000   -1.276000
C     -0.049000    0.046000    2.436000
H     -0.777000   -0.133000    3.221000
H      0.720000   -0.720000    2.476000
H      0.429000    1.010000    2.602000
H     -1.882000   -0.038000   -1.106000
H     -0.515000   -0.876000   -1.863000
H     -0.559000    0.879000   -1.850000
C      0.574800    3.489100    0.113100
C      1.406900    2.582600   -0.543600
C      2.739400    2.612600   -0.180500
C      3.115600    3.534900    0.794800
Br    -1.262600    3.529000   -0.310200
N      0.971500    4.356300    1.040800
N      2.266100    4.379100    1.387600
H      1.017300    1.905200   -1.288300
H      3.464900    1.950200   -0.630800
H      4.140100    3.616900    1.130300
