22

O      1.224000    0.000000    0.000000
C      0.000000    0.000000    0.000000
N     -0.718000    0.000000    1.154000
H     -1.717000    0.061000    1.108000
C     -0.809000   -0.010000   -1.276000
C     -0.049000    0.046000    2.436000
H     -0.777000   -0.133000    3.221000
H      0.720000   -0.720000    2.476000
H      0.429000    1.010000    2.602000
H     -1.882000   -0.038000   -1.106000
H     -0.515000   -0.876000   -1.863000
H     -0.559000    0.879000   -1.850000
C      5.493400   -0.165300    0.685600
C      5.506500    0.461200    1.931700
C      6.720100    0.469500    2.591500
C      7.798600   -0.141800    1.953900
Br     3.885300   -0.231300   -0.297300
N      6.545800   -0.739200    0.108300
N      7.719800   -0.726900    0.755000
H      4.613300    0.907700    2.341600
H      6.834500    0.929800    3.562600
H      8.779200   -0.175000    2.408100
