22

O      1.224000    0.000000    0.000000
C      0.000000    0.000000    0.000000
N     -0.718000    0.000000    1.154000
H     -1.717000    0.061000    1.108000
C     -0.809000   -0.010000   -1.276000
C     -0.049000    0.046000    2.436000
H     -0.777000   -0.133000    3.221000
H      0.720000   -0.720000    2.476000
H      0.429000    1.010000    2.602000
H     -1.882000   -0.038000   -1.106000
H     -0.515000   -0.876000   -1.863000
H     -0.559000    0.879000   -1.850000
C      1.556700   -4.634600    2.512700
C      2.796800   -4.791300    1.893700
C      3.498400   -5.933800    2.226300
C      2.904400   -6.806400    3.136900
Br     0.518900   -3.108000    2.126500
N      1.021700   -5.491300    3.378700
N      1.708900   -6.597500    3.696300
H      3.171100   -4.054800    1.198900
H      4.468600   -6.147400    1.801000
H      3.392800   -7.720300    3.445400
