22

O      1.224000    0.000000    0.000000
C      0.000000    0.000000    0.000000
N     -0.718000    0.000000    1.154000
H     -1.717000    0.061000    1.108000
C     -0.809000   -0.010000   -1.276000
C     -0.049000    0.046000    2.436000
H     -0.777000   -0.133000    3.221000
H      0.720000   -0.720000    2.476000
H      0.429000    1.010000    2.602000
H     -1.882000   -0.038000   -1.106000
H     -0.515000   -0.876000   -1.863000
H     -0.559000    0.879000   -1.850000
C      4.911600   -1.043700    1.176500
C      5.741600   -1.118500    0.058100
C      7.030900   -1.556900    0.290300
C      7.370400   -1.877200    1.603900
Br     3.131700   -0.456700    0.967200
N      5.272500   -1.358800    2.417700
N      6.525200   -1.783400    2.634800
H      5.382600   -0.846500   -0.922900
H      7.751100   -1.649600   -0.510100
H      8.360100   -2.227000    1.862900
